1983
  -OEChem-09042306233D

 20 20  0     0  0  0  0  0  0999 V2000
    3.8509    0.4516    0.0012 O   0  0  0  0  0  0  0  0  0  0  0  0
   -2.5999    1.4041   -0.0018 O   0  0  0  0  0  0  0  0  0  0  0  0
   -1.5705   -0.7171    0.0001 N   0  0  0  0  0  0  0  0  0  0  0  0
   -0.2066   -0.4231   -0.0002 C   0  0  0  0  0  0  0  0  0  0  0  0
    0.2205    0.9047    0.0004 C   0  0  0  0  0  0  0  0  0  0  0  0
    0.7298   -1.4570   -0.0007 C   0  0  0  0  0  0  0  0  0  0  0  0
    1.5841    1.1986    0.0002 C   0  0  0  0  0  0  0  0  0  0  0  0
    2.0933   -1.1629   -0.0007 C   0  0  0  0  0  0  0  0  0  0  0  0
    2.5204    0.1648   -0.0003 C   0  0  0  0  0  0  0  0  0  0  0  0
   -2.6485    0.1782    0.0009 C   0  0  0  0  0  0  0  0  0  0  0  0
   -3.9735   -0.5420    0.0010 C   0  0  0  0  0  0  0  0  0  0  0  0
   -0.4436    1.7577    0.0012 H   0  0  0  0  0  0  0  0  0  0  0  0
    0.4113   -2.4963   -0.0010 H   0  0  0  0  0  0  0  0  0  0  0  0
   -1.8010   -1.7086    0.0001 H   0  0  0  0  0  0  0  0  0  0  0  0
    1.9053    2.2370    0.0009 H   0  0  0  0  0  0  0  0  0  0  0  0
    2.8180   -1.9726   -0.0008 H   0  0  0  0  0  0  0  0  0  0  0  0
   -4.0655   -1.1463   -0.9058 H   0  0  0  0  0  0  0  0  0  0  0  0
   -4.7904    0.1844    0.0288 H   0  0  0  0  0  0  0  0  0  0  0  0
   -4.0445   -1.1886    0.8802 H   0  0  0  0  0  0  0  0  0  0  0  0
    3.9650    1.4176    0.0017 H   0  0  0  0  0  0  0  0  0  0  0  0
  1  9  1  0  0  0  0
  1 20  1  0  0  0  0
  2 10  2  0  0  0  0
  3  4  1  0  0  0  0
  3 10  1  0  0  0  0
  3 14  1  0  0  0  0
  4  5  2  0  0  0  0
  4  6  1  0  0  0  0
  5  7  1  0  0  0  0
  5 12  1  0  0  0  0
  6  8  2  0  0  0  0
  6 13  1  0  0  0  0
  7  9  2  0  0  0  0
  7 15  1  0  0  0  0
  8  9  1  0  0  0  0
  8 16  1  0  0  0  0
 10 11  1  0  0  0  0
 11 17  1  0  0  0  0
 11 18  1  0  0  0  0
 11 19  1  0  0  0  0
M  END
> <PUBCHEM_COMPOUND_CID>
1983

> <PUBCHEM_CONFORMER_RMSD>
0.4

> <PUBCHEM_CONFORMER_DIVERSEORDER>
1
2

> <PUBCHEM_MMFF94_PARTIAL_CHARGES>
17
1 -0.53
10 0.57
11 0.06
12 0.15
13 0.15
14 0.37
15 0.15
16 0.15
2 -0.57
20 0.45
3 -0.55
4 0.12
5 -0.15
6 -0.15
7 -0.15
8 -0.15
9 0.08

> <PUBCHEM_EFFECTIVE_ROTOR_COUNT>
2

> <PUBCHEM_PHARMACOPHORE_FEATURES>
4
1 1 donor
1 2 acceptor
1 3 donor
6 4 5 6 7 8 9 rings

> <PUBCHEM_HEAVY_ATOM_COUNT>
11

> <PUBCHEM_ATOM_DEF_STEREO_COUNT>
0

> <PUBCHEM_ATOM_UDEF_STEREO_COUNT>
0

> <PUBCHEM_BOND_DEF_STEREO_COUNT>
0

> <PUBCHEM_BOND_UDEF_STEREO_COUNT>
0

> <PUBCHEM_ISOTOPIC_ATOM_COUNT>
0

> <PUBCHEM_COMPONENT_COUNT>
1

> <PUBCHEM_CACTVS_TAUTO_COUNT>
4

> <PUBCHEM_CONFORMER_ID>
000007BF00000001

> <PUBCHEM_MMFF94_ENERGY>
29.3225

> <PUBCHEM_FEATURE_SELFOVERLAP>
20.297

> <PUBCHEM_SHAPE_FINGERPRINT>
10219947 1 18113338621837817764
11062470 55 18411419518204251026
12032990 46 18411707547554542334
12932764 1 17203596078260793835
13380535 76 18408886260652285810
14144814 61 18411136913877994947
14325111 11 18410856538196653569
15775835 57 18272936041829235069
16945 1 18410575114838704230
17844478 74 18113625564592914661
20201158 50 18335140894964588331
20645477 70 18339636729639669727
20871998 22 17982735177796030006
21040471 1 18338799051918016902
23235685 24 18409442613778059272
23402539 116 18337099151254697655
23402655 69 18341040836126580581
2748010 2 18194397788770795348
3248919 1 16877955914211802171
528886 8 18411414033747415386
53812653 166 18343296011552328384

> <PUBCHEM_SHAPE_MULTIPOLES>
209.66
5.89
1.4
0.59
2.62
0.02
0
-0.3
0
-0.18
0
0
0.01
0

> <PUBCHEM_SHAPE_SELFOVERLAP>
432.756

> <PUBCHEM_SHAPE_VOLUME>
120.2

> <PUBCHEM_COORDINATE_TYPE>
2
5
10

$$$$
3672
  -OEChem-09042306233D

 33 33  0     1  0  0  0  0  0999 V2000
   -4.4457   -1.0032    0.4113 O   0  0  0  0  0  0  0  0  0  0  0  0
   -2.4005   -1.9114    0.0531 O   0  0  0  0  0  0  0  0  0  0  0  0
    3.9024   -0.4411    0.0362 C   0  0  0  0  0  0  0  0  0  0  0  0
    3.1486    0.8194   -0.4313 C   0  0  0  0  0  0  0  0  0  0  0  0
    1.6528    0.7393   -0.2472 C   0  0  0  0  0  0  0  0  0  0  0  0
   -1.0946    0.5935    0.0901 C   0  0  0  0  0  0  0  0  0  0  0  0
   -2.5728    0.5152    0.2719 C   0  0  1  0  0  0  0  0  0  0  0  0
    3.6076   -0.7760    1.5005 C   0  0  0  0  0  0  0  0  0  0  0  0
    3.5239   -1.6299   -0.8505 C   0  0  0  0  0  0  0  0  0  0  0  0
    0.8690    0.2281   -1.2695 C   0  0  0  0  0  0  0  0  0  0  0  0
    1.0897    1.1791    0.9405 C   0  0  0  0  0  0  0  0  0  0  0  0
   -0.5135    0.1549   -1.0998 C   0  0  0  0  0  0  0  0  0  0  0  0
   -0.2929    1.1057    1.1102 C   0  0  0  0  0  0  0  0  0  0  0  0
   -3.3736    1.3495   -0.7486 C   0  0  0  0  0  0  0  0  0  0  0  0
   -3.1004   -0.9233    0.2332 C   0  0  0  0  0  0  0  0  0  0  0  0
    4.9775   -0.2527   -0.0735 H   0  0  0  0  0  0  0  0  0  0  0  0
    3.3789    1.0242   -1.4854 H   0  0  0  0  0  0  0  0  0  0  0  0
    3.5298    1.6907    0.1182 H   0  0  0  0  0  0  0  0  0  0  0  0
   -2.8243    0.8896    1.2739 H   0  0  0  0  0  0  0  0  0  0  0  0
    2.5794   -1.1167    1.6574 H   0  0  0  0  0  0  0  0  0  0  0  0
    3.7958    0.0879    2.1462 H   0  0  0  0  0  0  0  0  0  0  0  0
    4.2658   -1.5849    1.8375 H   0  0  0  0  0  0  0  0  0  0  0  0
    4.1778   -2.4814   -0.6301 H   0  0  0  0  0  0  0  0  0  0  0  0
    2.4964   -1.9688   -0.6863 H   0  0  0  0  0  0  0  0  0  0  0  0
    3.6494   -1.3895   -1.9115 H   0  0  0  0  0  0  0  0  0  0  0  0
    1.3084   -0.1099   -2.2035 H   0  0  0  0  0  0  0  0  0  0  0  0
    1.7024    1.5855    1.7398 H   0  0  0  0  0  0  0  0  0  0  0  0
   -1.1208   -0.2449   -1.9075 H   0  0  0  0  0  0  0  0  0  0  0  0
   -0.7290    1.4534    2.0430 H   0  0  0  0  0  0  0  0  0  0  0  0
   -3.0012    2.3792   -0.7840 H   0  0  0  0  0  0  0  0  0  0  0  0
   -3.3032    0.9294   -1.7582 H   0  0  0  0  0  0  0  0  0  0  0  0
   -4.4357    1.3895   -0.4835 H   0  0  0  0  0  0  0  0  0  0  0  0
   -4.7639   -1.9305    0.3782 H   0  0  0  0  0  0  0  0  0  0  0  0
  1 15  1  0  0  0  0
  1 33  1  0  0  0  0
  2 15  2  0  0  0  0
  3  4  1  0  0  0  0
  3  8  1  0  0  0  0
  3  9  1  0  0  0  0
  3 16  1  0  0  0  0
  4  5  1  0  0  0  0
  4 17  1  0  0  0  0
  4 18  1  0  0  0  0
  5 10  2  0  0  0  0
  5 11  1  0  0  0  0
  6  7  1  0  0  0  0
  6 12  2  0  0  0  0
  6 13  1  0  0  0  0
  7 14  1  0  0  0  0
  7 15  1  0  0  0  0
  7 19  1  0  0  0  0
  8 20  1  0  0  0  0
  8 21  1  0  0  0  0
  8 22  1  0  0  0  0
  9 23  1  0  0  0  0
  9 24  1  0  0  0  0
  9 25  1  0  0  0  0
 10 12  1  0  0  0  0
 10 26  1  0  0  0  0
 11 13  2  0  0  0  0
 11 27  1  0  0  0  0
 12 28  1  0  0  0  0
 13 29  1  0  0  0  0
 14 30  1  0  0  0  0
 14 31  1  0  0  0  0
 14 32  1  0  0  0  0
M  END
> <PUBCHEM_COMPOUND_CID>
3672

> <PUBCHEM_CONFORMER_RMSD>
0.6

> <PUBCHEM_CONFORMER_DIVERSEORDER>
1
5
7
3
8
6
2
4

> <PUBCHEM_MMFF94_PARTIAL_CHARGES>
16
1 -0.65
10 -0.15
11 -0.15
12 -0.15
13 -0.15
15 0.66
2 -0.57
26 0.15
27 0.15
28 0.15
29 0.15
33 0.5
4 0.14
5 -0.14
6 -0.14
7 0.2

> <PUBCHEM_EFFECTIVE_ROTOR_COUNT>
4

> <PUBCHEM_PHARMACOPHORE_FEATURES>
6
1 1 acceptor
1 14 hydrophobe
1 2 acceptor
3 1 2 15 anion
3 3 8 9 hydrophobe
6 5 6 10 11 12 13 rings

> <PUBCHEM_HEAVY_ATOM_COUNT>
15

> <PUBCHEM_ATOM_DEF_STEREO_COUNT>
0

> <PUBCHEM_ATOM_UDEF_STEREO_COUNT>
1

> <PUBCHEM_BOND_DEF_STEREO_COUNT>
0

> <PUBCHEM_BOND_UDEF_STEREO_COUNT>
0

> <PUBCHEM_ISOTOPIC_ATOM_COUNT>
0

> <PUBCHEM_COMPONENT_COUNT>
1

> <PUBCHEM_CACTVS_TAUTO_COUNT>
1

> <PUBCHEM_CONFORMER_ID>
00000E5800000001

> <PUBCHEM_MMFF94_ENERGY>
33.4346

> <PUBCHEM_FEATURE_SELFOVERLAP>
30.505

> <PUBCHEM_SHAPE_FINGERPRINT>
10465860 250 18272083885699767521
10498660 4 8214144032056245195
11132069 177 15410610363439031820
11543360 7 17967825984648297108
11769659 78 18260544537130987450
11796584 16 18334575759136973235
12251169 10 17060054878225422048
124424 183 18202276983600822165
12500047 106 18335693906485038525
12644460 14 17845655996570124680
12670546 177 13984958366832545714
13296908 3 18202004309038201860
13581323 91 18411984680203064389
13675066 3 18059849537336259340
13705890 14 18260550034921403748
13760787 19 18334863822345186868
14252887 29 17346887732449257614
14289901 80 18189054346875352032
14350558 41 18409738369510538278
14993402 34 16153426177173977401
15239191 94 18187363242109512154
15309172 13 16200434654194781052
15653759 3 18343864445994474073
16945 1 16774082881614120108
177051 138 18413112757784933046
17834074 16 18409167701221551503
18186145 218 17967532350550644900
19026448 4 18335416872225196860
19026448 5 18113059332984013340
19422 9 17748544839928157189
19862831 5 15502367915896170501
200 152 17531247240940792456
20281407 28 18344149189404302224
20281475 54 18271816704506015112
20645477 70 18335985345548531462
20671657 53 17385441046277079573
21501925 9 18060419127087554672
22485316 2 18040994021158574356
22854114 59 14764349331638486346
231179 274 7853574604211708072
23402539 116 15864345818900273028
23559900 14 18342739568706371380
26918003 58 18342731871993121138
474 4 13182732671689590650
4990 188 15213299746264963379
568465 68 16988572362965321379
58051976 100 18040435469230493885
76465 3 18129653227232560959
81228 2 17344650135555013136

> <PUBCHEM_SHAPE_MULTIPOLES>
296.95
7.71
1.56
1.23
0.51
0.46
0.07
2.86
0.57
0.4
0.06
-0.61
-0.06
0.41

> <PUBCHEM_SHAPE_SELFOVERLAP>
605.093

> <PUBCHEM_SHAPE_VOLUME>
172.2

> <PUBCHEM_COORDINATE_TYPE>
2
5
10

$$$$
2337
  -OEChem-09042306233D

 23 23  0     0  0  0  0  0  0999 V2000
   -2.1131   -0.3568    0.0005 O   0  0  0  0  0  0  0  0  0  0  0  0
   -1.7062    1.9089    0.0000 O   0  0  0  0  0  0  0  0  0  0  0  0
    4.1634   -0.7318   -0.0010 N   0  0  0  0  0  0  0  0  0  0  0  0
    0.1082    0.3619    0.0009 C   0  0  0  0  0  0  0  0  0  0  0  0
    1.0960    1.3466   -0.0001 C   0  0  0  0  0  0  0  0  0  0  0  0
    0.4669   -0.9861    0.0012 C   0  0  0  0  0  0  0  0  0  0  0  0
    2.8017   -0.3646   -0.0004 C   0  0  0  0  0  0  0  0  0  0  0  0
    2.4427    0.9834   -0.0008 C   0  0  0  0  0  0  0  0  0  0  0  0
    1.8137   -1.3494    0.0006 C   0  0  0  0  0  0  0  0  0  0  0  0
   -1.2959    0.7406    0.0008 C   0  0  0  0  0  0  0  0  0  0  0  0
   -3.5238   -0.1131   -0.0009 C   0  0  0  0  0  0  0  0  0  0  0  0
   -4.2535   -1.4395   -0.0009 C   0  0  0  0  0  0  0  0  0  0  0  0
    0.8381    2.4025   -0.0005 H   0  0  0  0  0  0  0  0  0  0  0  0
   -0.2676   -1.7866    0.0019 H   0  0  0  0  0  0  0  0  0  0  0  0
    3.2033    1.7599   -0.0016 H   0  0  0  0  0  0  0  0  0  0  0  0
    2.0812   -2.4031    0.0009 H   0  0  0  0  0  0  0  0  0  0  0  0
   -3.7946    0.4601    0.8926 H   0  0  0  0  0  0  0  0  0  0  0  0
   -3.7929    0.4592   -0.8954 H   0  0  0  0  0  0  0  0  0  0  0  0
   -5.3367   -1.2901   -0.0020 H   0  0  0  0  0  0  0  0  0  0  0  0
   -3.9769   -2.0312   -0.8798 H   0  0  0  0  0  0  0  0  0  0  0  0
   -3.9785   -2.0303    0.8790 H   0  0  0  0  0  0  0  0  0  0  0  0
    4.4242   -1.7089    0.0001 H   0  0  0  0  0  0  0  0  0  0  0  0
    4.8800   -0.0182   -0.0009 H   0  0  0  0  0  0  0  0  0  0  0  0
  1 10  1  0  0  0  0
  1 11  1  0  0  0  0
  2 10  2  0  0  0  0
  3  7  1  0  0  0  0
  3 22  1  0  0  0  0
  3 23  1  0  0  0  0
  4  5  2  0  0  0  0
  4  6  1  0  0  0  0
  4 10  1  0  0  0  0
  5  8  1  0  0  0  0
  5 13  1  0  0  0  0
  6  9  2  0  0  0  0
  6 14  1  0  0  0  0
  7  8  2  0  0  0  0
  7  9  1  0  0  0  0
  8 15  1  0  0  0  0
  9 16  1  0  0  0  0
 11 12  1  0  0  0  0
 11 17  1  0  0  0  0
 11 18  1  0  0  0  0
 12 19  1  0  0  0  0
 12 20  1  0  0  0  0
 12 21  1  0  0  0  0
M  END
> <PUBCHEM_COMPOUND_CID>
2337

> <PUBCHEM_CONFORMER_RMSD>
0.6

> <PUBCHEM_CONFORMER_DIVERSEORDER>
1
5
2
6
4
3
7

> <PUBCHEM_MMFF94_PARTIAL_CHARGES>
17
1 -0.43
10 0.63
11 0.28
13 0.15
14 0.15
15 0.15
16 0.15
2 -0.57
22 0.4
23 0.4
3 -0.9
4 0.09
5 -0.15
6 -0.15
7 0.1
8 -0.15
9 -0.15

> <PUBCHEM_EFFECTIVE_ROTOR_COUNT>
3

> <PUBCHEM_PHARMACOPHORE_FEATURES>
4
1 2 acceptor
1 3 cation
1 3 donor
6 4 5 6 7 8 9 rings

> <PUBCHEM_HEAVY_ATOM_COUNT>
12

> <PUBCHEM_ATOM_DEF_STEREO_COUNT>
0

> <PUBCHEM_ATOM_UDEF_STEREO_COUNT>
0

> <PUBCHEM_BOND_DEF_STEREO_COUNT>
0

> <PUBCHEM_BOND_UDEF_STEREO_COUNT>
0

> <PUBCHEM_ISOTOPIC_ATOM_COUNT>
0

> <PUBCHEM_COMPONENT_COUNT>
1

> <PUBCHEM_CACTVS_TAUTO_COUNT>
2

> <PUBCHEM_CONFORMER_ID>
0000092100000001

> <PUBCHEM_MMFF94_ENERGY>
38.2674

> <PUBCHEM_FEATURE_SELFOVERLAP>
20.297

> <PUBCHEM_SHAPE_FINGERPRINT>
11062470 55 12035446142425815870
11471102 20 18410006676064739365
11769659 78 18408600340362889523
11806522 49 18408885152671633438
12032990 46 18341616975713545022
13690532 89 18408039598455389370
14251717 144 18339359768420073951
14252887 29 17846506919643207254
14325111 11 18410855460165383876
15477762 27 18410294718030783702
15757776 16 18186796972135827938
16945 1 18410575093522032354
18186145 218 17313096484537189765
200 152 18201710752624436309
20201158 50 18334577949322147019
20645477 70 18411695496287987551
20871998 22 18200604596118082399
21501502 16 18336552616112568864
21501925 9 18408876335304085594
221490 88 18118409681219101715
22959321 4 18410856611432669713
23402539 116 18333724710923769367
23402655 69 18409163294927828469
25610 137 18410013277514070605
2748010 2 18196933258289550990
2871803 45 18334007302966672703
581208 293 18338513152724038809
8809292 202 18187369877971401035

> <PUBCHEM_SHAPE_MULTIPOLES>
230.23
6.78
1.62
0.59
3.43
0.25
0
-2.74
0
0.21
0
0
-0.01
0

> <PUBCHEM_SHAPE_SELFOVERLAP>
473.477

> <PUBCHEM_SHAPE_VOLUME>
133.6

> <PUBCHEM_COORDINATE_TYPE>
2
5
10

$$$$
4914
  -OEChem-09042306233D

 37 37  0     0  0  0  0  0  0999 V2000
   -0.2193   -0.1098   -0.1047 O   0  0  0  0  0  0  0  0  0  0  0  0
    0.5638   -2.1379   -0.8613 O   0  0  0  0  0  0  0  0  0  0  0  0
   -3.8926    0.1941   -0.0787 N   0  0  0  0  0  0  0  0  0  0  0  0
    5.8920    1.1504    0.4932 N   0  0  0  0  0  0  0  0  0  0  0  0
   -2.4971    0.5861    0.1162 C   0  0  0  0  0  0  0  0  0  0  0  0
   -4.7871    1.2948    0.2776 C   0  0  0  0  0  0  0  0  0  0  0  0
   -4.2049   -0.9951    0.7131 C   0  0  0  0  0  0  0  0  0  0  0  0
   -1.5611   -0.5395   -0.2940 C   0  0  0  0  0  0  0  0  0  0  0  0
   -4.4769    2.5398   -0.5361 C   0  0  0  0  0  0  0  0  0  0  0  0
   -5.6339   -1.4530    0.4759 C   0  0  0  0  0  0  0  0  0  0  0  0
    0.7488   -1.0108   -0.4289 C   0  0  0  0  0  0  0  0  0  0  0  0
    2.0990   -0.4432   -0.1854 C   0  0  0  0  0  0  0  0  0  0  0  0
    3.1286   -1.2953    0.1579 C   0  0  0  0  0  0  0  0  0  0  0  0
    2.2828    0.9187   -0.3113 C   0  0  0  0  0  0  0  0  0  0  0  0
    4.6089    0.6112    0.2646 C   0  0  0  0  0  0  0  0  0  0  0  0
    4.3975   -0.7621    0.3856 C   0  0  0  0  0  0  0  0  0  0  0  0
    3.5516    1.4516   -0.0838 C   0  0  0  0  0  0  0  0  0  0  0  0
   -2.2948    0.8792    1.1553 H   0  0  0  0  0  0  0  0  0  0  0  0
   -2.2226    1.4452   -0.5056 H   0  0  0  0  0  0  0  0  0  0  0  0
   -5.8254    1.0391    0.0424 H   0  0  0  0  0  0  0  0  0  0  0  0
   -4.7387    1.5334    1.3476 H   0  0  0  0  0  0  0  0  0  0  0  0
   -3.5969   -1.8496    0.4053 H   0  0  0  0  0  0  0  0  0  0  0  0
   -4.0371   -0.8338    1.7853 H   0  0  0  0  0  0  0  0  0  0  0  0
   -1.7153   -0.8049   -1.3471 H   0  0  0  0  0  0  0  0  0  0  0  0
   -1.6841   -1.4294    0.3285 H   0  0  0  0  0  0  0  0  0  0  0  0
   -3.5751    3.0538   -0.1894 H   0  0  0  0  0  0  0  0  0  0  0  0
   -4.3740    2.3148   -1.6033 H   0  0  0  0  0  0  0  0  0  0  0  0
   -5.2994    3.2570   -0.4339 H   0  0  0  0  0  0  0  0  0  0  0  0
   -6.3672   -0.8104    0.9730 H   0  0  0  0  0  0  0  0  0  0  0  0
   -5.8722   -1.5057   -0.5920 H   0  0  0  0  0  0  0  0  0  0  0  0
   -5.7711   -2.4585    0.8901 H   0  0  0  0  0  0  0  0  0  0  0  0
    2.9756   -2.3658    0.2582 H   0  0  0  0  0  0  0  0  0  0  0  0
    1.4797    1.5923   -0.5946 H   0  0  0  0  0  0  0  0  0  0  0  0
    5.2132   -1.4273    0.6570 H   0  0  0  0  0  0  0  0  0  0  0  0
    3.7046    2.5232   -0.1844 H   0  0  0  0  0  0  0  0  0  0  0  0
    6.0453    2.1464    0.4076 H   0  0  0  0  0  0  0  0  0  0  0  0
    6.6587    0.5420    0.7479 H   0  0  0  0  0  0  0  0  0  0  0  0
  1  8  1  0  0  0  0
  1 11  1  0  0  0  0
  2 11  2  0  0  0  0
  3  5  1  0  0  0  0
  3  6  1  0  0  0  0
  3  7  1  0  0  0  0
  4 15  1  0  0  0  0
  4 36  1  0  0  0  0
  4 37  1  0  0  0  0
  5  8  1  0  0  0  0
  5 18  1  0  0  0  0
  5 19  1  0  0  0  0
  6  9  1  0  0  0  0
  6 20  1  0  0  0  0
  6 21  1  0  0  0  0
  7 10  1  0  0  0  0
  7 22  1  0  0  0  0
  7 23  1  0  0  0  0
  8 24  1  0  0  0  0
  8 25  1  0  0  0  0
  9 26  1  0  0  0  0
  9 27  1  0  0  0  0
  9 28  1  0  0  0  0
 10 29  1  0  0  0  0
 10 30  1  0  0  0  0
 10 31  1  0  0  0  0
 11 12  1  0  0  0  0
 12 13  2  0  0  0  0
 12 14  1  0  0  0  0
 13 16  1  0  0  0  0
 13 32  1  0  0  0  0
 14 17  2  0  0  0  0
 14 33  1  0  0  0  0
 15 16  2  0  0  0  0
 15 17  1  0  0  0  0
 16 34  1  0  0  0  0
 17 35  1  0  0  0  0
M  END
> <PUBCHEM_COMPOUND_CID>
4914

> <PUBCHEM_CONFORMER_RMSD>
0.8

> <PUBCHEM_CONFORMER_DIVERSEORDER>
1
19
60
52
59
30
42
36
16
23
11
7
54
5
25
51
38
2
53
37
35
44
4
12
50
48
61
56
18
22
9
62
55
58
34
6
39
28
8
20
10
3
49
29
57
43
63
32
46
15
27
68
21
67
14
45
31
40
17
41
26
13
24
64
70
47
71
33
69
66
65

> <PUBCHEM_MMFF94_PARTIAL_CHARGES>
21
1 -0.43
11 0.63
12 0.09
13 -0.15
14 -0.15
15 0.1
16 -0.15
17 -0.15
2 -0.57
3 -0.81
32 0.15
33 0.15
34 0.15
35 0.15
36 0.4
37 0.4
4 -0.9
5 0.27
6 0.27
7 0.27
8 0.28

> <PUBCHEM_EFFECTIVE_ROTOR_COUNT>
7

> <PUBCHEM_PHARMACOPHORE_FEATURES>
5
1 2 acceptor
1 3 cation
1 4 cation
1 4 donor
6 12 13 14 15 16 17 rings

> <PUBCHEM_HEAVY_ATOM_COUNT>
17

> <PUBCHEM_ATOM_DEF_STEREO_COUNT>
0

> <PUBCHEM_ATOM_UDEF_STEREO_COUNT>
0

> <PUBCHEM_BOND_DEF_STEREO_COUNT>
0

> <PUBCHEM_BOND_UDEF_STEREO_COUNT>
0

> <PUBCHEM_ISOTOPIC_ATOM_COUNT>
0

> <PUBCHEM_COMPONENT_COUNT>
1

> <PUBCHEM_CACTVS_TAUTO_COUNT>
2

> <PUBCHEM_CONFORMER_ID>
0000133200000001

> <PUBCHEM_MMFF94_ENERGY>
47.1762

> <PUBCHEM_FEATURE_SELFOVERLAP>
25.371

> <PUBCHEM_SHAPE_FINGERPRINT>
10354089 29 18409167744830276088
12107183 9 17684359560488155585
12403259 118 18335134306411143509
12507557 5 18411420613774807273
12596602 18 18114175341844820568
12916748 109 17988651808815182192
13167823 11 18333730213019839075
13214271 11 18410572873451299557
13785724 45 17834673795576125594
14123255 352 18341046341794748741
14251764 18 18260824926277440490
14252887 29 13479133458823316552
14341114 176 18335426724906248801
15188451 53 16154000152878134537
15196674 1 18410575063214817581
17844677 252 18410301293557038081
18222031 100 14707207725497349718
19489759 90 17603864516440878481
20281389 69 18342736356181993808
20374829 77 9871754576419918108
20645477 70 17131565950729050990
20871999 31 11599999951392599061
21065199 12 18335143059807544427
212847 35 18130783448050186896
21709351 56 18409444774078096445
23402539 116 18113614586687946831
23402655 69 17988921145860996940
23559900 14 18053665776552205751
2916195 48 18201431523757625912
314173 85 15068621569538984015
351380 180 18260548930808775793
3545911 37 18272374200177998558
4214541 1 18335139765709994689
4325135 7 18201437017295058647
474229 33 18341614866906162911
5104073 3 18336267847238587475
77779 3 18408042892478780723
90127 26 18336276668758657843

> <PUBCHEM_SHAPE_MULTIPOLES>
328.15
13.91
2.04
0.75
3.78
0.5
0.01
3.24
-2.83
1.63
0.23
0.09
-0.08
0.76

> <PUBCHEM_SHAPE_SELFOVERLAP>
661.424

> <PUBCHEM_SHAPE_VOLUME>
194.2

> <PUBCHEM_COORDINATE_TYPE>
2
5
10

$$$$
9076
  -OEChem-09042306233D

 21 21  0     0  0  0  0  0  0999 V2000
    1.8689   -0.4425    0.4021 O   0  0  0  0  0  0  0  0  0  0  0  0
   -3.6011    0.3010   -0.2699 N   0  0  0  0  0  0  0  0  0  0  0  0
    0.5305   -0.2603    0.2367 C   0  0  0  0  0  0  0  0  0  0  0  0
   -0.0040    1.0282    0.2403 C   0  0  0  0  0  0  0  0  0  0  0  0
   -0.3073   -1.3624    0.0652 C   0  0  0  0  0  0  0  0  0  0  0  0
   -2.2138    0.1127   -0.0991 C   0  0  0  0  0  0  0  0  0  0  0  0
    2.7285    0.5951   -0.0674 C   0  0  0  0  0  0  0  0  0  0  0  0
   -1.3761    1.2147    0.0724 C   0  0  0  0  0  0  0  0  0  0  0  0
   -1.6795   -1.1758   -0.1027 C   0  0  0  0  0  0  0  0  0  0  0  0
    4.0540   -0.0106   -0.4777 C   0  0  0  0  0  0  0  0  0  0  0  0
    0.6088    1.9106    0.3985 H   0  0  0  0  0  0  0  0  0  0  0  0
    0.1033   -2.3684    0.0616 H   0  0  0  0  0  0  0  0  0  0  0  0
    2.3131    1.1028   -0.9468 H   0  0  0  0  0  0  0  0  0  0  0  0
    2.8865    1.3227    0.7362 H   0  0  0  0  0  0  0  0  0  0  0  0
   -1.7817    2.2232    0.0830 H   0  0  0  0  0  0  0  0  0  0  0  0
   -2.3218   -2.0426   -0.2357 H   0  0  0  0  0  0  0  0  0  0  0  0
    4.7433    0.7602   -0.8339 H   0  0  0  0  0  0  0  0  0  0  0  0
    4.5159   -0.5346    0.3657 H   0  0  0  0  0  0  0  0  0  0  0  0
    3.9106   -0.7509   -1.2718 H   0  0  0  0  0  0  0  0  0  0  0  0
   -3.9895    1.2348   -0.2660 H   0  0  0  0  0  0  0  0  0  0  0  0
   -4.2091   -0.4978   -0.3929 H   0  0  0  0  0  0  0  0  0  0  0  0
  1  3  1  0  0  0  0
  1  7  1  0  0  0  0
  2  6  1  0  0  0  0
  2 20  1  0  0  0  0
  2 21  1  0  0  0  0
  3  4  2  0  0  0  0
  3  5  1  0  0  0  0
  4  8  1  0  0  0  0
  4 11  1  0  0  0  0
  5  9  2  0  0  0  0
  5 12  1  0  0  0  0
  6  8  2  0  0  0  0
  6  9  1  0  0  0  0
  7 10  1  0  0  0  0
  7 13  1  0  0  0  0
  7 14  1  0  0  0  0
  8 15  1  0  0  0  0
  9 16  1  0  0  0  0
 10 17  1  0  0  0  0
 10 18  1  0  0  0  0
 10 19  1  0  0  0  0
M  END
> <PUBCHEM_COMPOUND_CID>
9076

> <PUBCHEM_CONFORMER_RMSD>
0.4

> <PUBCHEM_CONFORMER_DIVERSEORDER>
1
2
6
5
3
4

> <PUBCHEM_MMFF94_PARTIAL_CHARGES>
15
1 -0.36
11 0.15
12 0.15
15 0.15
16 0.15
2 -0.9
20 0.4
21 0.4
3 0.08
4 -0.15
5 -0.15
6 0.1
7 0.28
8 -0.15
9 -0.15

> <PUBCHEM_EFFECTIVE_ROTOR_COUNT>
2

> <PUBCHEM_PHARMACOPHORE_FEATURES>
4
1 1 acceptor
1 2 cation
1 2 donor
6 3 4 5 6 8 9 rings

> <PUBCHEM_HEAVY_ATOM_COUNT>
10

> <PUBCHEM_ATOM_DEF_STEREO_COUNT>
0

> <PUBCHEM_ATOM_UDEF_STEREO_COUNT>
0

> <PUBCHEM_BOND_DEF_STEREO_COUNT>
0

> <PUBCHEM_BOND_UDEF_STEREO_COUNT>
0

> <PUBCHEM_ISOTOPIC_ATOM_COUNT>
0

> <PUBCHEM_COMPONENT_COUNT>
1

> <PUBCHEM_CACTVS_TAUTO_COUNT>
1

> <PUBCHEM_CONFORMER_ID>
0000237400000001

> <PUBCHEM_MMFF94_ENERGY>
38.4805

> <PUBCHEM_FEATURE_SELFOVERLAP>
20.297

> <PUBCHEM_SHAPE_FINGERPRINT>
11062470 55 15068622681919520229
12032990 46 18340492273923320795
12897270 3 18412544323195126484
12932764 1 17168130274255726412
13024252 1 17603870022108968971
14325111 11 18410011005381269568
14911166 2 18412819196881034445
14993402 34 18261108582206234365
15310529 11 16805873022663487585
15775835 57 18113338600510745804
16945 1 18340475721039955001
20201158 50 17988931063267479182
21040471 1 18340196397884096651
21293036 1 18411134744866769453
23235685 24 18411131424893966261
23402539 116 18201430363778774420
23402655 69 18196070172629046597
23552423 10 18116992397787584328
2748010 2 18051401061792310705
369184 2 13334731353730635672

> <PUBCHEM_SHAPE_MULTIPOLES>
194.94
5.48
1.28
0.66
3.59
0.11
0.01
-0.48
1.06
-0.44
-0.04
0.09
0
-0.02

> <PUBCHEM_SHAPE_SELFOVERLAP>
396.157

> <PUBCHEM_SHAPE_VOLUME>
114.5

> <PUBCHEM_COORDINATE_TYPE>
2
5
10

$$$$
403
  -OEChem-09042306233D

 15 15  0     0  0  0  0  0  0999 V2000
   -2.7620   -0.0002    0.0000 O   0  0  0  0  0  0  0  0  0  0  0  0
    2.7991   -0.0001   -0.0002 N   0  0  0  0  0  0  0  0  0  0  0  0
    1.3887    0.0002    0.0001 C   0  0  0  0  0  0  0  0  0  0  0  0
    0.6915   -1.2079    0.0002 C   0  0  0  0  0  0  0  0  0  0  0  0
    0.6911    1.2082    0.0001 C   0  0  0  0  0  0  0  0  0  0  0  0
   -1.4010   -0.0001   -0.0001 C   0  0  0  0  0  0  0  0  0  0  0  0
   -0.7034   -1.2080   -0.0001 C   0  0  0  0  0  0  0  0  0  0  0  0
   -0.7038    1.2079    0.0000 C   0  0  0  0  0  0  0  0  0  0  0  0
    1.2236   -2.1557    0.0002 H   0  0  0  0  0  0  0  0  0  0  0  0
    1.2229    2.1561    0.0000 H   0  0  0  0  0  0  0  0  0  0  0  0
   -1.2349   -2.1559   -0.0001 H   0  0  0  0  0  0  0  0  0  0  0  0
   -1.2417    2.1521    0.0000 H   0  0  0  0  0  0  0  0  0  0  0  0
    3.3050   -0.8758    0.0004 H   0  0  0  0  0  0  0  0  0  0  0  0
    3.3055    0.8753    0.0003 H   0  0  0  0  0  0  0  0  0  0  0  0
   -3.0771   -0.9205    0.0000 H   0  0  0  0  0  0  0  0  0  0  0  0
  1  6  1  0  0  0  0
  1 15  1  0  0  0  0
  2  3  1  0  0  0  0
  2 13  1  0  0  0  0
  2 14  1  0  0  0  0
  3  4  2  0  0  0  0
  3  5  1  0  0  0  0
  4  7  1  0  0  0  0
  4  9  1  0  0  0  0
  5  8  2  0  0  0  0
  5 10  1  0  0  0  0
  6  7  2  0  0  0  0
  6  8  1  0  0  0  0
  7 11  1  0  0  0  0
  8 12  1  0  0  0  0
M  END
> <PUBCHEM_COMPOUND_CID>
403

> <PUBCHEM_CONFORMER_RMSD>
0.4

> <PUBCHEM_CONFORMER_DIVERSEORDER>
1

> <PUBCHEM_MMFF94_PARTIAL_CHARGES>
15
1 -0.53
10 0.15
11 0.15
12 0.15
13 0.4
14 0.4
15 0.45
2 -0.9
3 0.1
4 -0.15
5 -0.15
6 0.08
7 -0.15
8 -0.15
9 0.15

> <PUBCHEM_EFFECTIVE_ROTOR_COUNT>
0

> <PUBCHEM_PHARMACOPHORE_FEATURES>
4
1 1 donor
1 2 cation
1 2 donor
6 3 4 5 6 7 8 rings

> <PUBCHEM_HEAVY_ATOM_COUNT>
8

> <PUBCHEM_ATOM_DEF_STEREO_COUNT>
0

> <PUBCHEM_ATOM_UDEF_STEREO_COUNT>
0

> <PUBCHEM_BOND_DEF_STEREO_COUNT>
0

> <PUBCHEM_BOND_UDEF_STEREO_COUNT>
0

> <PUBCHEM_ISOTOPIC_ATOM_COUNT>
0

> <PUBCHEM_COMPONENT_COUNT>
1

> <PUBCHEM_CACTVS_TAUTO_COUNT>
4

> <PUBCHEM_CONFORMER_ID>
0000019300000001

> <PUBCHEM_MMFF94_ENERGY>
28.1291

> <PUBCHEM_FEATURE_SELFOVERLAP>
20.297

> <PUBCHEM_SHAPE_FINGERPRINT>
16714656 1 18410858763163727814
18185500 45 18410852183084049671
20096714 4 18338799017194314155
21040471 1 18338516459875204451
23235685 24 18410852170183304000
23402655 69 18195226842820668589
23552423 10 18045228145837368814
29004967 10 18261399935618171313
5084963 1 18343864419971378272

> <PUBCHEM_SHAPE_MULTIPOLES>
153.79
2.9
1.38
0.59
0.1
0
0
0
0
-0.01
0
0
0
0

> <PUBCHEM_SHAPE_SELFOVERLAP>
319.66

> <PUBCHEM_SHAPE_VOLUME>
88.4

> <PUBCHEM_COORDINATE_TYPE>
2
5
10

$$$$
7495
  -OEChem-09042306233D

 21 21  0     0  0  0  0  0  0999 V2000
    2.6000    0.4174   -0.3818 O   0  0  0  0  0  0  0  0  0  0  0  0
   -3.6262    0.8896    0.2526 O   0  5  0  0  0  0  0  0  0  0  0  0
   -3.4182   -1.2909    0.1073 O   0  0  0  0  0  0  0  0  0  0  0  0
   -2.9197   -0.1395    0.1247 N   0  3  0  0  0  0  0  0  0  0  0  0
    1.2514    0.2812   -0.2582 C   0  0  0  0  0  0  0  0  0  0  0  0
   -1.5129    0.0033   -0.0050 C   0  0  0  0  0  0  0  0  0  0  0  0
    0.4467    1.4117   -0.1158 C   0  0  0  0  0  0  0  0  0  0  0  0
    0.6738   -0.9885   -0.2740 C   0  0  0  0  0  0  0  0  0  0  0  0
    3.4087   -0.6461    0.1185 C   0  0  0  0  0  0  0  0  0  0  0  0
   -0.9354    1.2728    0.0108 C   0  0  0  0  0  0  0  0  0  0  0  0
   -0.7085   -1.1274   -0.1474 C   0  0  0  0  0  0  0  0  0  0  0  0
    4.7403   -0.0836    0.5682 C   0  0  0  0  0  0  0  0  0  0  0  0
    0.8916    2.4031   -0.1026 H   0  0  0  0  0  0  0  0  0  0  0  0
    1.2612   -1.8917   -0.4105 H   0  0  0  0  0  0  0  0  0  0  0  0
    2.9487   -1.1354    0.9863 H   0  0  0  0  0  0  0  0  0  0  0  0
    3.5671   -1.3827   -0.6769 H   0  0  0  0  0  0  0  0  0  0  0  0
   -1.5308    2.1756    0.1201 H   0  0  0  0  0  0  0  0  0  0  0  0
   -1.1245   -2.1314   -0.1699 H   0  0  0  0  0  0  0  0  0  0  0  0
    5.3916   -0.8754    0.9490 H   0  0  0  0  0  0  0  0  0  0  0  0
    5.2461    0.4203   -0.2621 H   0  0  0  0  0  0  0  0  0  0  0  0
    4.5972    0.6650    1.3545 H   0  0  0  0  0  0  0  0  0  0  0  0
  1  5  1  0  0  0  0
  1  9  1  0  0  0  0
  2  4  1  0  0  0  0
  3  4  2  0  0  0  0
  4  6  1  0  0  0  0
  5  7  2  0  0  0  0
  5  8  1  0  0  0  0
  6 10  2  0  0  0  0
  6 11  1  0  0  0  0
  7 10  1  0  0  0  0
  7 13  1  0  0  0  0
  8 11  2  0  0  0  0
  8 14  1  0  0  0  0
  9 12  1  0  0  0  0
  9 15  1  0  0  0  0
  9 16  1  0  0  0  0
 10 17  1  0  0  0  0
 11 18  1  0  0  0  0
 12 19  1  0  0  0  0
 12 20  1  0  0  0  0
 12 21  1  0  0  0  0
M  CHG  2   2  -1   4   1
M  END
> <PUBCHEM_COMPOUND_CID>
7495

> <PUBCHEM_CONFORMER_RMSD>
0.6

> <PUBCHEM_CONFORMER_DIVERSEORDER>
1
2

> <PUBCHEM_MMFF94_PARTIAL_CHARGES>
15
1 -0.36
10 -0.15
11 -0.15
13 0.15
14 0.15
17 0.15
18 0.15
2 -0.52
3 -0.52
4 0.91
5 0.08
6 0.13
7 -0.15
8 -0.15
9 0.28

> <PUBCHEM_EFFECTIVE_ROTOR_COUNT>
3

> <PUBCHEM_PHARMACOPHORE_FEATURES>
5
1 1 acceptor
1 2 acceptor
1 2 anion
1 3 acceptor
6 5 6 7 8 10 11 rings

> <PUBCHEM_HEAVY_ATOM_COUNT>
12

> <PUBCHEM_ATOM_DEF_STEREO_COUNT>
0

> <PUBCHEM_ATOM_UDEF_STEREO_COUNT>
0

> <PUBCHEM_BOND_DEF_STEREO_COUNT>
0

> <PUBCHEM_BOND_UDEF_STEREO_COUNT>
0

> <PUBCHEM_ISOTOPIC_ATOM_COUNT>
0

> <PUBCHEM_COMPONENT_COUNT>
1

> <PUBCHEM_CACTVS_TAUTO_COUNT>
1

> <PUBCHEM_CONFORMER_ID>
00001D4700000001

> <PUBCHEM_MMFF94_ENERGY>
37.7746

> <PUBCHEM_FEATURE_SELFOVERLAP>
25.453

> <PUBCHEM_SHAPE_FINGERPRINT>
10130415 120 18261111889573690672
11062470 55 16128656349258869314
11132069 177 18341334413672089588
11401426 45 18413100654509057709
12032990 46 18411144631892229174
12119455 92 16988838354874762204
124424 183 18186516609819105119
13214271 11 18272647943918002189
13690532 89 18334574667713788670
14325111 11 18410578409031193061
16945 1 18342471330196485333
18186145 218 11530482246226034486
19026448 4 16056890112653701676
193761 8 17619067673543832726
20510252 161 18201719492761882920
20645476 183 17679043696751650174
21119208 17 10519984881365138818
21501925 9 18411416258371637038
22485316 2 18334571330808919450
23380061 330 18343018908572763071
23402539 116 18272359871697490622
23402655 69 18197484144508532909
23463225 33 18335422348556055286
23559900 14 18343587313904822670
42 15 18335136463006757762
43471831 8 18262234400815238130
53655031 270 18334857173688203482

> <PUBCHEM_SHAPE_MULTIPOLES>
224.37
6.88
1.34
0.65
3.71
0.09
0
-0.83
1.4
-0.57
-0.03
0.18
0
-0.07

> <PUBCHEM_SHAPE_SELFOVERLAP>
461.32

> <PUBCHEM_SHAPE_VOLUME>
129.7

> <PUBCHEM_COORDINATE_TYPE>
2
5
10

$$$$
19266
  -OEChem-09042306233D

 22 22  0     0  0  0  0  0  0999 V2000
   -3.5764   -1.4918   -0.0008 O   0  0  0  0  0  0  0  0  0  0  0  0
    3.2221   -1.4811   -0.0014 O   0  0  0  0  0  0  0  0  0  0  0  0
   -4.1173    0.7159   -0.0016 O   0  0  0  0  0  0  0  0  0  0  0  0
    2.3172    0.6961   -0.0001 N   0  0  0  0  0  0  0  0  0  0  0  0
    0.9387    0.4818    0.0008 C   0  0  0  0  0  0  0  0  0  0  0  0
   -1.8181    0.0542    0.0008 C   0  0  0  0  0  0  0  0  0  0  0  0
    0.0642    1.5686    0.0002 C   0  0  0  0  0  0  0  0  0  0  0  0
    0.4347   -0.8189    0.0014 C   0  0  0  0  0  0  0  0  0  0  0  0
   -1.3141    1.3548    0.0002 C   0  0  0  0  0  0  0  0  0  0  0  0
   -0.9437   -1.0327    0.0014 C   0  0  0  0  0  0  0  0  0  0  0  0
    3.3416   -0.2601    0.0004 C   0  0  0  0  0  0  0  0  0  0  0  0
   -3.2552   -0.1689   -0.0002 C   0  0  0  0  0  0  0  0  0  0  0  0
    4.7063    0.3821   -0.0011 C   0  0  0  0  0  0  0  0  0  0  0  0
    0.4431    2.5876   -0.0006 H   0  0  0  0  0  0  0  0  0  0  0  0
    1.0486   -1.7088    0.0020 H   0  0  0  0  0  0  0  0  0  0  0  0
   -1.9786    2.2149   -0.0004 H   0  0  0  0  0  0  0  0  0  0  0  0
   -1.2944   -2.0611    0.0018 H   0  0  0  0  0  0  0  0  0  0  0  0
    2.6049    1.6726   -0.0008 H   0  0  0  0  0  0  0  0  0  0  0  0
    4.8329    0.9778   -0.9094 H   0  0  0  0  0  0  0  0  0  0  0  0
    5.4796   -0.3905    0.0284 H   0  0  0  0  0  0  0  0  0  0  0  0
    4.8148    1.0254    0.8766 H   0  0  0  0  0  0  0  0  0  0  0  0
   -4.5475   -1.6315   -0.0021 H   0  0  0  0  0  0  0  0  0  0  0  0
  1 12  1  0  0  0  0
  1 22  1  0  0  0  0
  2 11  2  0  0  0  0
  3 12  2  0  0  0  0
  4  5  1  0  0  0  0
  4 11  1  0  0  0  0
  4 18  1  0  0  0  0
  5  7  2  0  0  0  0
  5  8  1  0  0  0  0
  6  9  2  0  0  0  0
  6 10  1  0  0  0  0
  6 12  1  0  0  0  0
  7  9  1  0  0  0  0
  7 14  1  0  0  0  0
  8 10  2  0  0  0  0
  8 15  1  0  0  0  0
  9 16  1  0  0  0  0
 10 17  1  0  0  0  0
 11 13  1  0  0  0  0
 13 19  1  0  0  0  0
 13 20  1  0  0  0  0
 13 21  1  0  0  0  0
M  END
> <PUBCHEM_COMPOUND_CID>
19266

> <PUBCHEM_CONFORMER_RMSD>
0.6

> <PUBCHEM_CONFORMER_DIVERSEORDER>
1
2

> <PUBCHEM_MMFF94_PARTIAL_CHARGES>
19
1 -0.65
10 -0.15
11 0.57
12 0.63
13 0.06
14 0.15
15 0.15
16 0.15
17 0.15
18 0.37
2 -0.57
22 0.5
3 -0.57
4 -0.55
5 0.12
6 0.09
7 -0.15
8 -0.15
9 -0.15

> <PUBCHEM_EFFECTIVE_ROTOR_COUNT>
3

> <PUBCHEM_PHARMACOPHORE_FEATURES>
6
1 1 acceptor
1 2 acceptor
1 3 acceptor
1 4 donor
3 1 3 12 anion
6 5 6 7 8 9 10 rings

> <PUBCHEM_HEAVY_ATOM_COUNT>
13

> <PUBCHEM_ATOM_DEF_STEREO_COUNT>
0

> <PUBCHEM_ATOM_UDEF_STEREO_COUNT>
0

> <PUBCHEM_BOND_DEF_STEREO_COUNT>
0

> <PUBCHEM_BOND_UDEF_STEREO_COUNT>
0

> <PUBCHEM_ISOTOPIC_ATOM_COUNT>
0

> <PUBCHEM_COMPONENT_COUNT>
1

> <PUBCHEM_CACTVS_TAUTO_COUNT>
3

> <PUBCHEM_CONFORMER_ID>
00004B4200000001

> <PUBCHEM_MMFF94_ENERGY>
38.4509

> <PUBCHEM_FEATURE_SELFOVERLAP>
30.504

> <PUBCHEM_SHAPE_FINGERPRINT>
11062470 55 17775567541767864096
11132069 177 18411416202505322857
11401426 45 18411132541606659709
11543360 7 15575003921812243027
11769659 78 18409444786709900586
12032990 46 18410296929854493059
12932764 1 17131536276857556628
13214271 11 18343299275658836583
13690532 89 18408602573703665858
14144814 61 18411982438456878754
14252887 29 17989218048734800702
14325111 11 18410575084663189344
18186145 218 16443062837171621629
193761 8 17690280409060359265
200 152 17989479728254502541
20281407 28 18412265038446054104
20510252 161 18200876171453820648
20645477 70 18341611456485800350
21267235 1 18338526321115250591
22485316 2 18410853261189360750
23402539 116 18342167873550721710
23463225 33 18409731746523248734
23559900 14 18412261723448680722
5104073 3 18411699868137076794
53655031 270 18409449146238739337
7364860 26 18195809789582741064

> <PUBCHEM_SHAPE_MULTIPOLES>
244.94
7.61
1.46
0.59
2.95
0.01
0
0.91
0.01
-0.3
0
0.02
-0.01
0

> <PUBCHEM_SHAPE_SELFOVERLAP>
510.934

> <PUBCHEM_SHAPE_VOLUME>
138.3

> <PUBCHEM_COORDINATE_TYPE>
2
5
10

$$$$
76024
  -OEChem-09042306233D

 28 28  0     0  0  0  0  0  0999 V2000
   -0.2059   -2.0472    0.5246 O   0  0  0  0  0  0  0  0  0  0  0  0
   -1.0223   -0.3741   -0.8595 N   0  0  0  0  0  0  0  0  0  0  0  0
   -3.3053   -0.3909    0.0625 C   0  0  0  0  0  0  0  0  0  0  0  0
   -2.3488   -0.9060   -1.0079 C   0  0  0  0  0  0  0  0  0  0  0  0
   -3.4704    1.1300    0.0209 C   0  0  0  0  0  0  0  0  0  0  0  0
   -4.4742    1.6081    1.0583 C   0  0  0  0  0  0  0  0  0  0  0  0
   -0.0442   -0.9981   -0.0933 C   0  0  0  0  0  0  0  0  0  0  0  0
    1.2689   -0.3071   -0.0192 C   0  0  0  0  0  0  0  0  0  0  0  0
    2.0640   -0.5047    1.0906 C   0  0  0  0  0  0  0  0  0  0  0  0
    1.6510    0.5102   -1.0626 C   0  0  0  0  0  0  0  0  0  0  0  0
    3.2968    0.1444    1.1602 C   0  0  0  0  0  0  0  0  0  0  0  0
    2.8838    1.1592   -0.9931 C   0  0  0  0  0  0  0  0  0  0  0  0
    3.7065    0.9763    0.1184 C   0  0  0  0  0  0  0  0  0  0  0  0
   -2.9443   -0.6893    1.0546 H   0  0  0  0  0  0  0  0  0  0  0  0
   -4.2822   -0.8682   -0.0807 H   0  0  0  0  0  0  0  0  0  0  0  0
   -2.7038   -0.6244   -2.0050 H   0  0  0  0  0  0  0  0  0  0  0  0
   -2.3046   -1.9998   -0.9650 H   0  0  0  0  0  0  0  0  0  0  0  0
   -3.8076    1.4402   -0.9749 H   0  0  0  0  0  0  0  0  0  0  0  0
   -2.5099    1.6235    0.2077 H   0  0  0  0  0  0  0  0  0  0  0  0
   -0.8465    0.5278   -1.2885 H   0  0  0  0  0  0  0  0  0  0  0  0
   -4.1511    1.3400    2.0693 H   0  0  0  0  0  0  0  0  0  0  0  0
   -4.5776    2.6967    1.0121 H   0  0  0  0  0  0  0  0  0  0  0  0
   -5.4601    1.1657    0.8836 H   0  0  0  0  0  0  0  0  0  0  0  0
    1.7574   -1.1449    1.9124 H   0  0  0  0  0  0  0  0  0  0  0  0
    1.0572    0.6516   -1.9594 H   0  0  0  0  0  0  0  0  0  0  0  0
    3.9372    0.0028    2.0259 H   0  0  0  0  0  0  0  0  0  0  0  0
    3.2072    1.8009   -1.8076 H   0  0  0  0  0  0  0  0  0  0  0  0
    4.6671    1.4804    0.1717 H   0  0  0  0  0  0  0  0  0  0  0  0
  1  7  2  0  0  0  0
  2  4  1  0  0  0  0
  2  7  1  0  0  0  0
  2 20  1  0  0  0  0
  3  4  1  0  0  0  0
  3  5  1  0  0  0  0
  3 14  1  0  0  0  0
  3 15  1  0  0  0  0
  4 16  1  0  0  0  0
  4 17  1  0  0  0  0
  5  6  1  0  0  0  0
  5 18  1  0  0  0  0
  5 19  1  0  0  0  0
  6 21  1  0  0  0  0
  6 22  1  0  0  0  0
  6 23  1  0  0  0  0
  7  8  1  0  0  0  0
  8  9  2  0  0  0  0
  8 10  1  0  0  0  0
  9 11  1  0  0  0  0
  9 24  1  0  0  0  0
 10 12  2  0  0  0  0
 10 25  1  0  0  0  0
 11 13  2  0  0  0  0
 11 26  1  0  0  0  0
 12 13  1  0  0  0  0
 12 27  1  0  0  0  0
 13 28  1  0  0  0  0
M  END
> <PUBCHEM_COMPOUND_CID>
76024

> <PUBCHEM_CONFORMER_RMSD>
0.6

> <PUBCHEM_CONFORMER_DIVERSEORDER>
1
9
10
21
29
30
23
12
22
18
13
19
26
14
24
17
8
16
3
28
11
27
4
15
6
25
5
20
7
2

> <PUBCHEM_MMFF94_PARTIAL_CHARGES>
16
1 -0.57
10 -0.15
11 -0.15
12 -0.15
13 -0.15
2 -0.73
20 0.37
24 0.15
25 0.15
26 0.15
27 0.15
28 0.15
4 0.3
7 0.54
8 0.09
9 -0.15

> <PUBCHEM_EFFECTIVE_ROTOR_COUNT>
5

> <PUBCHEM_PHARMACOPHORE_FEATURES>
4
1 1 acceptor
1 2 donor
1 6 hydrophobe
6 8 9 10 11 12 13 rings

> <PUBCHEM_HEAVY_ATOM_COUNT>
13

> <PUBCHEM_ATOM_DEF_STEREO_COUNT>
0

> <PUBCHEM_ATOM_UDEF_STEREO_COUNT>
0

> <PUBCHEM_BOND_DEF_STEREO_COUNT>
0

> <PUBCHEM_BOND_UDEF_STEREO_COUNT>
0

> <PUBCHEM_ISOTOPIC_ATOM_COUNT>
0

> <PUBCHEM_COMPONENT_COUNT>
1

> <PUBCHEM_CACTVS_TAUTO_COUNT>
2

> <PUBCHEM_CONFORMER_ID>
000128F800000001

> <PUBCHEM_MMFF94_ENERGY>
20.8925

> <PUBCHEM_FEATURE_SELFOVERLAP>
20.297

> <PUBCHEM_SHAPE_FINGERPRINT>
10465860 228 18338518525770532003
10498660 4 17489023752482813241
11046707 91 10665222653105661417
11471102 22 16588299475562757764
11769659 78 7853568007189440159
12251169 10 17313106358461255475
12932764 1 17131550638838252935
14123260 362 18130515171344680385
14144814 61 17895745296486640430
14251710 61 11386376928354348225
15775835 57 18341612603215356641
1741750 31 17988925548666653355
177051 138 11963397349134612513
17844478 74 15647320944923139150
18186145 218 18335700520465616702
19107657 162 13117997799322736561
19107657 9 18408889550602152077
201361 129 18339359669435392219
20233049 118 18201716262819947208
20281475 54 8141818200030131340
20361792 2 9655575206021701995
20645477 56 17203047486541383135
20645477 70 16661742454188964794
20711983 171 18343300374848710837
20767249 442 18131631154066482809
21713013 43 14620504688280492877
22485316 2 8935009165267635718
22926399 65 17989205957953476161
23402539 116 17632286887528936732
23402655 69 13038920922847410507
23557571 272 16916780842472796269
251288 83 12108081023271135644
2748010 2 17318132101827118342
276578 36 18335703819063842306
305870 269 18341890753840160695
3268164 11 17560505288363737469
4028521 119 17060622170628403673

> <PUBCHEM_SHAPE_MULTIPOLES>
256.68
7.89
1.55
1.21
4.99
0.07
0.02
-4.49
1.62
0.96
0.17
-0.41
-0.09
-1.06

> <PUBCHEM_SHAPE_SELFOVERLAP>
516.941

> <PUBCHEM_SHAPE_VOLUME>
150.5

> <PUBCHEM_COORDINATE_TYPE>
2
5
10

$$$$
11364
  -OEChem-09042306233D

 22 22  0     0  0  0  0  0  0999 V2000
    1.8540    1.6577    0.3313 O   0  0  0  0  0  0  0  0  0  0  0  0
    1.0613   -0.5135   -0.1453 N   0  0  0  0  0  0  0  0  0  0  0  0
   -0.3031   -0.2308   -0.0738 C   0  0  0  0  0  0  0  0  0  0  0  0
   -0.7664    1.0511   -0.3696 C   0  0  0  0  0  0  0  0  0  0  0  0
   -1.2040   -1.2307    0.2924 C   0  0  0  0  0  0  0  0  0  0  0  0
    1.4834   -1.9251   -0.4039 C   0  0  0  0  0  0  0  0  0  0  0  0
    2.0828    0.4666    0.1061 C   0  0  0  0  0  0  0  0  0  0  0  0
   -2.1307    1.3333   -0.2989 C   0  0  0  0  0  0  0  0  0  0  0  0
   -2.5682   -0.9487    0.3629 C   0  0  0  0  0  0  0  0  0  0  0  0
   -3.0315    0.3333    0.0672 C   0  0  0  0  0  0  0  0  0  0  0  0
    3.5224    0.0068    0.1316 C   0  0  0  0  0  0  0  0  0  0  0  0
   -0.1228    1.8484   -0.7239 H   0  0  0  0  0  0  0  0  0  0  0  0
   -0.8831   -2.2351    0.5534 H   0  0  0  0  0  0  0  0  0  0  0  0
    2.4492   -1.9596   -0.9119 H   0  0  0  0  0  0  0  0  0  0  0  0
    0.7629   -2.4241   -1.0596 H   0  0  0  0  0  0  0  0  0  0  0  0
    1.5627   -2.4450    0.5554 H   0  0  0  0  0  0  0  0  0  0  0  0
   -2.4940    2.3272   -0.5436 H   0  0  0  0  0  0  0  0  0  0  0  0
   -3.2698   -1.7257    0.6525 H   0  0  0  0  0  0  0  0  0  0  0  0
   -4.0940    0.5523    0.1198 H   0  0  0  0  0  0  0  0  0  0  0  0
    3.8541   -0.2344   -0.8815 H   0  0  0  0  0  0  0  0  0  0  0  0
    3.6414   -0.8562    0.7914 H   0  0  0  0  0  0  0  0  0  0  0  0
    4.1550    0.8130    0.5166 H   0  0  0  0  0  0  0  0  0  0  0  0
  1  7  2  0  0  0  0
  2  3  1  0  0  0  0
  2  6  1  0  0  0  0
  2  7  1  0  0  0  0
  3  4  2  0  0  0  0
  3  5  1  0  0  0  0
  4  8  1  0  0  0  0
  4 12  1  0  0  0  0
  5  9  2  0  0  0  0
  5 13  1  0  0  0  0
  6 14  1  0  0  0  0
  6 15  1  0  0  0  0
  6 16  1  0  0  0  0
  7 11  1  0  0  0  0
  8 10  2  0  0  0  0
  8 17  1  0  0  0  0
  9 10  1  0  0  0  0
  9 18  1  0  0  0  0
 10 19  1  0  0  0  0
 11 20  1  0  0  0  0
 11 21  1  0  0  0  0
 11 22  1  0  0  0  0
M  END
> <PUBCHEM_COMPOUND_CID>
11364

> <PUBCHEM_CONFORMER_RMSD>
0.4

> <PUBCHEM_CONFORMER_DIVERSEORDER>
2
4
5
1
3
6

> <PUBCHEM_MMFF94_PARTIAL_CHARGES>
16
1 -0.57
10 -0.15
11 0.06
12 0.15
13 0.15
17 0.15
18 0.15
19 0.15
2 -0.48
3 0.12
4 -0.15
5 -0.15
6 0.3
7 0.57
8 -0.15
9 -0.15

> <PUBCHEM_EFFECTIVE_ROTOR_COUNT>
2

> <PUBCHEM_PHARMACOPHORE_FEATURES>
2
1 1 acceptor
6 3 4 5 8 9 10 rings

> <PUBCHEM_HEAVY_ATOM_COUNT>
11

> <PUBCHEM_ATOM_DEF_STEREO_COUNT>
0

> <PUBCHEM_ATOM_UDEF_STEREO_COUNT>
0

> <PUBCHEM_BOND_DEF_STEREO_COUNT>
0

> <PUBCHEM_BOND_UDEF_STEREO_COUNT>
0

> <PUBCHEM_ISOTOPIC_ATOM_COUNT>
0

> <PUBCHEM_COMPONENT_COUNT>
1

> <PUBCHEM_CACTVS_TAUTO_COUNT>
1

> <PUBCHEM_CONFORMER_ID>
00002C6400000002

> <PUBCHEM_MMFF94_ENERGY>
44.3369

> <PUBCHEM_FEATURE_SELFOVERLAP>
10.148

> <PUBCHEM_SHAPE_FINGERPRINT>
10608611 8 18410289194550087532
10857977 72 18188489189466502441
12524768 44 18408324358923663567
12897270 3 18411418427314219397
12932764 1 17632569452968268263
13380535 21 18338250262081503855
13380535 76 18410007723815590135
14325111 11 18410292536240099280
15219456 202 18340208487985108135
15775835 57 17968376740983732609
16945 1 18411421717380474423
19973954 147 18339645542453228585
20201158 50 18411980243385802939
20588541 1 18409731729295978188
20645464 45 18410858737446794943
20871998 184 18268155438365769567
21028194 46 18411418436099462672
21501502 16 18338233760854134315
23235685 24 18411130325266482312
23402539 116 18336815477254841879
23402655 69 18269823230481338645
23463225 33 18334010588642754976
23552423 10 18186809049647161223
2748010 2 18265334997544975663
369184 2 17675917712047205905
5084963 1 18130790121980978290
53812653 166 18412543189207780912
6333449 129 18409727370194238647
7364860 26 18268427928133831270

> <PUBCHEM_SHAPE_MULTIPOLES>
215.52
4.87
1.7
0.67
1.31
0.2
0.01
-0.44
-0.37
0.13
0.08
-0.03
0.02
0.44

> <PUBCHEM_SHAPE_SELFOVERLAP>
440.027

> <PUBCHEM_SHAPE_VOLUME>
125.3

> <PUBCHEM_COORDINATE_TYPE>
2
5
10

$$$$
12107
  -OEChem-09042306233D

 22 22  0     0  0  0  0  0  0999 V2000
    1.8576   -1.2960   -0.0078 O   0  0  0  0  0  0  0  0  0  0  0  0
    0.7027    0.7547   -0.0042 N   0  0  0  0  0  0  0  0  0  0  0  0
   -0.6395    0.3737   -0.0009 C   0  0  0  0  0  0  0  0  0  0  0  0
    3.1174    0.7562   -0.0104 C   0  0  0  0  0  0  0  0  0  0  0  0
    1.8395   -0.0696   -0.0073 C   0  0  0  0  0  0  0  0  0  0  0  0
   -1.6404    1.3451    0.0014 C   0  0  0  0  0  0  0  0  0  0  0  0
   -0.9802   -0.9788   -0.0008 C   0  0  0  0  0  0  0  0  0  0  0  0
    4.3701   -0.1008    0.0209 C   0  0  0  0  0  0  0  0  0  0  0  0
   -2.9823    0.9640    0.0038 C   0  0  0  0  0  0  0  0  0  0  0  0
   -2.3220   -1.3600    0.0015 C   0  0  0  0  0  0  0  0  0  0  0  0
   -3.3230   -0.3886    0.0038 C   0  0  0  0  0  0  0  0  0  0  0  0
    3.1223    1.3815   -0.9104 H   0  0  0  0  0  0  0  0  0  0  0  0
    3.1049    1.4183    0.8629 H   0  0  0  0  0  0  0  0  0  0  0  0
    0.8678    1.7593   -0.0048 H   0  0  0  0  0  0  0  0  0  0  0  0
   -1.3895    2.4028    0.0012 H   0  0  0  0  0  0  0  0  0  0  0  0
   -0.2639   -1.7882   -0.0026 H   0  0  0  0  0  0  0  0  0  0  0  0
    4.3950   -0.7280    0.9181 H   0  0  0  0  0  0  0  0  0  0  0  0
    5.2639    0.5306    0.0201 H   0  0  0  0  0  0  0  0  0  0  0  0
    4.4170   -0.7609   -0.8515 H   0  0  0  0  0  0  0  0  0  0  0  0
   -3.7618    1.7203    0.0056 H   0  0  0  0  0  0  0  0  0  0  0  0
   -2.5888   -2.4129    0.0015 H   0  0  0  0  0  0  0  0  0  0  0  0
   -4.3678   -0.6854    0.0056 H   0  0  0  0  0  0  0  0  0  0  0  0
  1  5  2  0  0  0  0
  2  3  1  0  0  0  0
  2  5  1  0  0  0  0
  2 14  1  0  0  0  0
  3  6  2  0  0  0  0
  3  7  1  0  0  0  0
  4  5  1  0  0  0  0
  4  8  1  0  0  0  0
  4 12  1  0  0  0  0
  4 13  1  0  0  0  0
  6  9  1  0  0  0  0
  6 15  1  0  0  0  0
  7 10  2  0  0  0  0
  7 16  1  0  0  0  0
  8 17  1  0  0  0  0
  8 18  1  0  0  0  0
  8 19  1  0  0  0  0
  9 11  2  0  0  0  0
  9 20  1  0  0  0  0
 10 11  1  0  0  0  0
 10 21  1  0  0  0  0
 11 22  1  0  0  0  0
M  END
> <PUBCHEM_COMPOUND_CID>
12107

> <PUBCHEM_CONFORMER_RMSD>
0.6

> <PUBCHEM_CONFORMER_DIVERSEORDER>
1
4
3
2

> <PUBCHEM_MMFF94_PARTIAL_CHARGES>
16
1 -0.57
10 -0.15
11 -0.15
14 0.37
15 0.15
16 0.15
2 -0.55
20 0.15
21 0.15
22 0.15
3 0.12
4 0.06
5 0.57
6 -0.15
7 -0.15
9 -0.15

> <PUBCHEM_EFFECTIVE_ROTOR_COUNT>
3

> <PUBCHEM_PHARMACOPHORE_FEATURES>
4
1 1 acceptor
1 2 donor
1 8 hydrophobe
6 3 6 7 9 10 11 rings

> <PUBCHEM_HEAVY_ATOM_COUNT>
11

> <PUBCHEM_ATOM_DEF_STEREO_COUNT>
0

> <PUBCHEM_ATOM_UDEF_STEREO_COUNT>
0

> <PUBCHEM_BOND_DEF_STEREO_COUNT>
0

> <PUBCHEM_BOND_UDEF_STEREO_COUNT>
0

> <PUBCHEM_ISOTOPIC_ATOM_COUNT>
0

> <PUBCHEM_COMPONENT_COUNT>
1

> <PUBCHEM_CACTVS_TAUTO_COUNT>
2

> <PUBCHEM_CONFORMER_ID>
00002F4B00000001

> <PUBCHEM_MMFF94_ENERGY>
26.1088

> <PUBCHEM_FEATURE_SELFOVERLAP>
20.297

> <PUBCHEM_SHAPE_FINGERPRINT>
10608611 8 18412821391435632448
11062470 55 18410573993746673484
12932764 1 17274811459065744162
13024252 1 15574713599730182937
13380535 76 18410573976720226846
14144814 61 18409165493692510568
14325111 11 18410575058919765829
15219456 202 18059303058329288926
15775835 57 18335141951357614649
20201158 50 18342176665364762950
20279233 1 17917716794373651446
20528008 55 18341606036083636901
20645464 45 18059862761471842663
20871998 184 18201443635607774047
23402539 116 18201712964796396477
23402655 69 18269822135343760469
23463225 33 18334854992029556650
23552423 10 18260548973921913951
23559900 14 18343299233146954760
3312278 4 18411139142876402803
369184 2 18343301457554944185
6333449 129 18413105065456275381
7364860 26 18197215854501197654
75552 356 18410013260112466999

> <PUBCHEM_SHAPE_MULTIPOLES>
215.52
6.75
1.37
0.6
5.32
0.09
0
-0.03
-0.03
-0.66
0
-0.02
-0.01
0

> <PUBCHEM_SHAPE_SELFOVERLAP>
437.846

> <PUBCHEM_SHAPE_VOLUME>
125.2

> <PUBCHEM_COORDINATE_TYPE>
2
5
10

$$$$
11959
  -OEChem-09042306233D

 22 22  0     0  0  0  0  0  0999 V2000
    1.4958    1.3295   -0.3800 O   0  0  0  0  0  0  0  0  0  0  0  0
    1.7364   -0.8886    0.2516 N   0  0  0  0  0  0  0  0  0  0  0  0
   -0.4697    0.0976   -0.0371 C   0  0  0  0  0  0  0  0  0  0  0  0
    3.1813   -0.8995    0.2781 C   0  0  0  0  0  0  0  0  0  0  0  0
    0.9769    0.2395   -0.0799 C   0  0  0  0  0  0  0  0  0  0  0  0
   -1.2731    1.2113    0.2075 C   0  0  0  0  0  0  0  0  0  0  0  0
   -1.0539   -1.1526   -0.2404 C   0  0  0  0  0  0  0  0  0  0  0  0
    3.7534    0.4525   -0.0952 C   0  0  0  0  0  0  0  0  0  0  0  0
   -2.6607    1.0748    0.2490 C   0  0  0  0  0  0  0  0  0  0  0  0
   -2.4415   -1.2891   -0.1991 C   0  0  0  0  0  0  0  0  0  0  0  0
   -3.2448   -0.1754    0.0456 C   0  0  0  0  0  0  0  0  0  0  0  0
    3.4912   -1.1885    1.2871 H   0  0  0  0  0  0  0  0  0  0  0  0
    3.5189   -1.6734   -0.4180 H   0  0  0  0  0  0  0  0  0  0  0  0
    1.2786   -1.7443    0.5459 H   0  0  0  0  0  0  0  0  0  0  0  0
   -0.8376    2.1933    0.3729 H   0  0  0  0  0  0  0  0  0  0  0  0
   -0.4690   -2.0395   -0.4653 H   0  0  0  0  0  0  0  0  0  0  0  0
    3.5298    0.7443   -1.1266 H   0  0  0  0  0  0  0  0  0  0  0  0
    3.5013    1.2396    0.6230 H   0  0  0  0  0  0  0  0  0  0  0  0
    4.8479    0.3751   -0.0555 H   0  0  0  0  0  0  0  0  0  0  0  0
   -3.2865    1.9417    0.4402 H   0  0  0  0  0  0  0  0  0  0  0  0
   -2.8974   -2.2610   -0.3646 H   0  0  0  0  0  0  0  0  0  0  0  0
   -4.3253   -0.2814    0.0762 H   0  0  0  0  0  0  0  0  0  0  0  0
  1  5  2  0  0  0  0
  2  4  1  0  0  0  0
  2  5  1  0  0  0  0
  2 14  1  0  0  0  0
  3  5  1  0  0  0  0
  3  6  2  0  0  0  0
  3  7  1  0  0  0  0
  4  8  1  0  0  0  0
  4 12  1  0  0  0  0
  4 13  1  0  0  0  0
  6  9  1  0  0  0  0
  6 15  1  0  0  0  0
  7 10  2  0  0  0  0
  7 16  1  0  0  0  0
  8 17  1  0  0  0  0
  8 18  1  0  0  0  0
  8 19  1  0  0  0  0
  9 11  2  0  0  0  0
  9 20  1  0  0  0  0
 10 11  1  0  0  0  0
 10 21  1  0  0  0  0
 11 22  1  0  0  0  0
M  END
> <PUBCHEM_COMPOUND_CID>
11959

> <PUBCHEM_CONFORMER_RMSD>
0.6

> <PUBCHEM_CONFORMER_DIVERSEORDER>
1

> <PUBCHEM_MMFF94_PARTIAL_CHARGES>
16
1 -0.57
10 -0.15
11 -0.15
14 0.37
15 0.15
16 0.15
2 -0.73
20 0.15
21 0.15
22 0.15
3 0.09
4 0.3
5 0.54
6 -0.15
7 -0.15
9 -0.15

> <PUBCHEM_EFFECTIVE_ROTOR_COUNT>
3

> <PUBCHEM_PHARMACOPHORE_FEATURES>
3
1 1 acceptor
1 2 donor
6 3 6 7 9 10 11 rings

> <PUBCHEM_HEAVY_ATOM_COUNT>
11

> <PUBCHEM_ATOM_DEF_STEREO_COUNT>
0

> <PUBCHEM_ATOM_UDEF_STEREO_COUNT>
0

> <PUBCHEM_BOND_DEF_STEREO_COUNT>
0

> <PUBCHEM_BOND_UDEF_STEREO_COUNT>
0

> <PUBCHEM_ISOTOPIC_ATOM_COUNT>
0

> <PUBCHEM_COMPONENT_COUNT>
1

> <PUBCHEM_CACTVS_TAUTO_COUNT>
2

> <PUBCHEM_CONFORMER_ID>
00002EB700000001

> <PUBCHEM_MMFF94_ENERGY>
33.1833

> <PUBCHEM_FEATURE_SELFOVERLAP>
15.223

> <PUBCHEM_SHAPE_FINGERPRINT>
11062470 55 18412544310136183770
12932764 1 17749103349206991870
13024252 1 15502095241850761613
14144814 61 18410011018187004802
14325111 11 18411700963221757080
15669948 3 18272364308493997094
15775835 57 18408890602874407801
16945 1 18340212907833308439
20645464 45 17346602967195236679
20871998 184 18059858410802308623
23402539 116 18059565876743447781
23463225 33 18336825273885450130
23552423 10 18261956374443343789
369184 2 18272649052183081649
7364860 26 18198904897534678728
75552 356 18342175561547501451

> <PUBCHEM_SHAPE_MULTIPOLES>
215.52
5.9
1.42
0.64
3.26
0.01
0
-0.25
0.22
-0.38
-0.02
0.01
0
-0.34

> <PUBCHEM_SHAPE_SELFOVERLAP>
442.683

> <PUBCHEM_SHAPE_VOLUME>
124.4

> <PUBCHEM_COORDINATE_TYPE>
2
5
10

$$$$
94921
  -OEChem-09042306233D

 25 25  0     0  0  0  0  0  0999 V2000
    3.3260    2.1917    0.4122 Cl  0  0  0  0  0  0  0  0  0  0  0  0
    3.1889   -0.8765    0.6824 O   0  0  0  0  0  0  0  0  0  0  0  0
    1.3999   -0.6771   -0.7846 N   0  0  0  0  0  0  0  0  0  0  0  0
   -0.2957   -1.5463    0.7859 C   0  0  0  0  0  0  0  0  0  0  0  0
    0.6903   -1.8499   -0.3487 C   0  0  0  0  0  0  0  0  0  0  0  0
   -1.3566   -0.5682    0.4081 C   0  0  0  0  0  0  0  0  0  0  0  0
   -1.1474    0.7972    0.6020 C   0  0  0  0  0  0  0  0  0  0  0  0
   -2.5580   -1.0189   -0.1389 C   0  0  0  0  0  0  0  0  0  0  0  0
   -2.1395    1.7120    0.2490 C   0  0  0  0  0  0  0  0  0  0  0  0
   -3.5501   -0.1042   -0.4918 C   0  0  0  0  0  0  0  0  0  0  0  0
    2.6069   -0.2835   -0.2242 C   0  0  0  0  0  0  0  0  0  0  0  0
   -3.3408    1.2613   -0.2979 C   0  0  0  0  0  0  0  0  0  0  0  0
    3.1761    0.9624   -0.8533 C   0  0  0  0  0  0  0  0  0  0  0  0
   -0.7611   -2.4848    1.1137 H   0  0  0  0  0  0  0  0  0  0  0  0
    0.2517   -1.1710    1.6608 H   0  0  0  0  0  0  0  0  0  0  0  0
    1.4110   -2.6048   -0.0158 H   0  0  0  0  0  0  0  0  0  0  0  0
    0.1623   -2.2498   -1.2213 H   0  0  0  0  0  0  0  0  0  0  0  0
    0.9886   -0.1247   -1.5311 H   0  0  0  0  0  0  0  0  0  0  0  0
   -0.2174    1.1628    1.0293 H   0  0  0  0  0  0  0  0  0  0  0  0
   -2.7326   -2.0799   -0.2969 H   0  0  0  0  0  0  0  0  0  0  0  0
   -1.9767    2.7751    0.4004 H   0  0  0  0  0  0  0  0  0  0  0  0
   -4.4854   -0.4549   -0.9182 H   0  0  0  0  0  0  0  0  0  0  0  0
   -4.1133    1.9735   -0.5729 H   0  0  0  0  0  0  0  0  0  0  0  0
    4.1668    0.7434   -1.2608 H   0  0  0  0  0  0  0  0  0  0  0  0
    2.5402    1.3594   -1.6483 H   0  0  0  0  0  0  0  0  0  0  0  0
  1 13  1  0  0  0  0
  2 11  2  0  0  0  0
  3  5  1  0  0  0  0
  3 11  1  0  0  0  0
  3 18  1  0  0  0  0
  4  5  1  0  0  0  0
  4  6  1  0  0  0  0
  4 14  1  0  0  0  0
  4 15  1  0  0  0  0
  5 16  1  0  0  0  0
  5 17  1  0  0  0  0
  6  7  2  0  0  0  0
  6  8  1  0  0  0  0
  7  9  1  0  0  0  0
  7 19  1  0  0  0  0
  8 10  2  0  0  0  0
  8 20  1  0  0  0  0
  9 12  2  0  0  0  0
  9 21  1  0  0  0  0
 10 12  1  0  0  0  0
 10 22  1  0  0  0  0
 11 13  1  0  0  0  0
 12 23  1  0  0  0  0
 13 24  1  0  0  0  0
 13 25  1  0  0  0  0
M  END
> <PUBCHEM_COMPOUND_CID>
94921

> <PUBCHEM_CONFORMER_RMSD>
0.6

> <PUBCHEM_CONFORMER_DIVERSEORDER>
4
38
13
9
54
19
31
45
10
34
12
46
27
1
5
14
24
40
33
3
6
52
37
16
39
8
11
41
48
42
20
56
47
21
22
25
23
36
35
17
44
2
7
51
18
49
43
53
32
50
30
15
55
26
28
29

> <PUBCHEM_MMFF94_PARTIAL_CHARGES>
19
1 -0.29
10 -0.15
11 0.57
12 -0.15
13 0.35
18 0.37
19 0.15
2 -0.57
20 0.15
21 0.15
22 0.15
23 0.15
3 -0.73
4 0.14
5 0.3
6 -0.14
7 -0.15
8 -0.15
9 -0.15

> <PUBCHEM_EFFECTIVE_ROTOR_COUNT>
5

> <PUBCHEM_PHARMACOPHORE_FEATURES>
3
1 2 acceptor
1 3 donor
6 6 7 8 9 10 12 rings

> <PUBCHEM_HEAVY_ATOM_COUNT>
13

> <PUBCHEM_ATOM_DEF_STEREO_COUNT>
0

> <PUBCHEM_ATOM_UDEF_STEREO_COUNT>
0

> <PUBCHEM_BOND_DEF_STEREO_COUNT>
0

> <PUBCHEM_BOND_UDEF_STEREO_COUNT>
0

> <PUBCHEM_ISOTOPIC_ATOM_COUNT>
0

> <PUBCHEM_COMPONENT_COUNT>
1

> <PUBCHEM_CACTVS_TAUTO_COUNT>
2

> <PUBCHEM_CONFORMER_ID>
000172C900000004

> <PUBCHEM_MMFF94_ENERGY>
21.4527

> <PUBCHEM_FEATURE_SELFOVERLAP>
15.223

> <PUBCHEM_SHAPE_FINGERPRINT>
10608611 8 18410293592522570236
12162725 195 18410011009554937062
13897977 150 18411982481169545089
14250199 8 18271535182147403878
15775835 57 18259991457033621812
17802600 8 18409161091567459284
18186145 218 18335424538662335245
192875 21 18339910529166618968
19766037 51 9655026627161007664
20281407 28 9727630600788473918
20361792 2 13038896686452473491
20449540 30 18272938215346775441
20671657 53 17413323364220332878
21524375 3 18335422348429759942
22096605 113 18413107264305444610
22485316 2 10015579493421032646
22959321 54 18410856607106222764
23557571 272 18194981848267359127
23559900 14 18271802363858432350
351380 180 18412256246959280896
5262128 65 17488487216287975380
526903 126 18412265060132218481
6333272 397 18335702766638508258
7364860 26 18050847719496783339
7832392 63 17766285266848052377
8050 44 18408601439932760589

> <PUBCHEM_SHAPE_MULTIPOLES>
258.55
6.68
2.15
0.88
1.81
0.39
0
2.89
-0.77
0.64
0.21
0.21
-0.03
0.07

> <PUBCHEM_SHAPE_SELFOVERLAP>
512.808

> <PUBCHEM_SHAPE_VOLUME>
153.5

> <PUBCHEM_COORDINATE_TYPE>
2
5
10

$$$$
6483715
  -OEChem-09042306233D

 26 26  0     0  0  0  0  0  0999 V2000
    5.6877    0.7861    0.6239 Br  0  0  0  0  0  0  0  0  0  0  0  0
    2.6001    0.3176    0.1727 O   0  0  0  0  0  0  0  0  0  0  0  0
   -3.8061    1.4855   -0.1665 O   0  0  0  0  0  0  0  0  0  0  0  0
   -2.8571   -0.6622    0.0466 N   0  0  0  0  0  0  0  0  0  0  0  0
   -1.4842   -0.4158    0.0777 C   0  0  0  0  0  0  0  0  0  0  0  0
    1.2609    0.0771    0.1405 C   0  0  0  0  0  0  0  0  0  0  0  0
   -1.0083    0.8924   -0.0107 C   0  0  0  0  0  0  0  0  0  0  0  0
   -0.5875   -1.4776    0.1976 C   0  0  0  0  0  0  0  0  0  0  0  0
    0.3643    1.1387    0.0205 C   0  0  0  0  0  0  0  0  0  0  0  0
    0.7851   -1.2310    0.2291 C   0  0  0  0  0  0  0  0  0  0  0  0
    3.4551   -0.6978   -0.3505 C   0  0  0  0  0  0  0  0  0  0  0  0
    4.7407   -0.0733   -0.8497 C   0  0  0  0  0  0  0  0  0  0  0  0
   -3.9004    0.2663   -0.0678 C   0  0  0  0  0  0  0  0  0  0  0  0
   -5.2503   -0.4060   -0.0634 C   0  0  0  0  0  0  0  0  0  0  0  0
   -1.6397    1.7648   -0.1050 H   0  0  0  0  0  0  0  0  0  0  0  0
   -0.9451   -2.5015    0.2732 H   0  0  0  0  0  0  0  0  0  0  0  0
    0.7306    2.1595   -0.0485 H   0  0  0  0  0  0  0  0  0  0  0  0
    1.4468   -2.0835    0.3491 H   0  0  0  0  0  0  0  0  0  0  0  0
    2.9892   -1.2083   -1.2031 H   0  0  0  0  0  0  0  0  0  0  0  0
    3.6674   -1.4295    0.4381 H   0  0  0  0  0  0  0  0  0  0  0  0
   -3.1241   -1.6420    0.1166 H   0  0  0  0  0  0  0  0  0  0  0  0
    5.4202   -0.8175   -1.2722 H   0  0  0  0  0  0  0  0  0  0  0  0
    4.5509    0.7202   -1.5776 H   0  0  0  0  0  0  0  0  0  0  0  0
   -5.3307   -1.0784   -0.9221 H   0  0  0  0  0  0  0  0  0  0  0  0
   -6.0401    0.3477   -0.1266 H   0  0  0  0  0  0  0  0  0  0  0  0
   -5.3781   -0.9764    0.8610 H   0  0  0  0  0  0  0  0  0  0  0  0
  1 12  1  0  0  0  0
  2  6  1  0  0  0  0
  2 11  1  0  0  0  0
  3 13  2  0  0  0  0
  4  5  1  0  0  0  0
  4 13  1  0  0  0  0
  4 21  1  0  0  0  0
  5  7  2  0  0  0  0
  5  8  1  0  0  0  0
  6  9  2  0  0  0  0
  6 10  1  0  0  0  0
  7  9  1  0  0  0  0
  7 15  1  0  0  0  0
  8 10  2  0  0  0  0
  8 16  1  0  0  0  0
  9 17  1  0  0  0  0
 10 18  1  0  0  0  0
 11 12  1  0  0  0  0
 11 19  1  0  0  0  0
 11 20  1  0  0  0  0
 12 22  1  0  0  0  0
 12 23  1  0  0  0  0
 13 14  1  0  0  0  0
 14 24  1  0  0  0  0
 14 25  1  0  0  0  0
 14 26  1  0  0  0  0
M  END
> <PUBCHEM_COMPOUND_CID>
6483715

> <PUBCHEM_CONFORMER_RMSD>
0.6

> <PUBCHEM_CONFORMER_DIVERSEORDER>
1
29
22
15
30
23
9
14
27
2
28
16
25
13
20
21
7
12
26
11
24
5
17
10
4
18
6
19
3
8

> <PUBCHEM_MMFF94_PARTIAL_CHARGES>
19
1 -0.23
10 -0.15
11 0.28
12 0.23
13 0.57
14 0.06
15 0.15
16 0.15
17 0.15
18 0.15
2 -0.36
21 0.37
3 -0.57
4 -0.55
5 0.12
6 0.08
7 -0.15
8 -0.15
9 -0.15

> <PUBCHEM_EFFECTIVE_ROTOR_COUNT>
5

> <PUBCHEM_PHARMACOPHORE_FEATURES>
5
1 1 hydrophobe
1 2 acceptor
1 3 acceptor
1 4 donor
6 5 6 7 8 9 10 rings

> <PUBCHEM_HEAVY_ATOM_COUNT>
14

> <PUBCHEM_ATOM_DEF_STEREO_COUNT>
0

> <PUBCHEM_ATOM_UDEF_STEREO_COUNT>
0

> <PUBCHEM_BOND_DEF_STEREO_COUNT>
0

> <PUBCHEM_BOND_UDEF_STEREO_COUNT>
0

> <PUBCHEM_ISOTOPIC_ATOM_COUNT>
0

> <PUBCHEM_COMPONENT_COUNT>
1

> <PUBCHEM_CACTVS_TAUTO_COUNT>
2

> <PUBCHEM_CONFORMER_ID>
0062EF0300000001

> <PUBCHEM_MMFF94_ENERGY>
41.5269

> <PUBCHEM_FEATURE_SELFOVERLAP>
25.371

> <PUBCHEM_SHAPE_FINGERPRINT>
11287383 113 17703789253890587158
11401426 45 18411980273577142086
114248 4 17918275359255134062
13533116 47 13686308941930130364
13862211 1 18409163316081119179
14123238 8 17894912931777118324
14251718 22 18060418044755763718
14911166 2 18410577296581909407
14993402 34 18260832604776989477
15375358 24 18342741832075216518
17834072 33 16988558043834272956
17834076 25 18408603673900959500
187816 3 17775288265719561162
200 152 16774080656868176178
20279233 1 18201727266995410774
20645477 56 18410009966331493316
20645477 70 17560809780065101134
21029758 11 18202002140090728400
21267235 1 18339367457049889199
22485316 2 18131631188489492350
23402539 116 18341607131495385622
23402655 69 18338789010775154597
23557571 272 18338244765288490468
23559900 14 18341898498546728214
2916195 48 18341887515619312608
293599 30 18410857624997628205
366044 4 18408886243482868714
42788 4 18413108359854394956
4463277 17 18342741806099723385
4990 188 18202287974263773342
5104073 3 18335986346196635059
5374978 207 18410005534246919624

> <PUBCHEM_SHAPE_MULTIPOLES>
277.34
11.42
1.31
0.72
3.88
0.01
0.02
-2
0.2
-0.27
-0.05
0.54
0
0.42

> <PUBCHEM_SHAPE_SELFOVERLAP>
548.189

> <PUBCHEM_SHAPE_VOLUME>
169.5

> <PUBCHEM_COORDINATE_TYPE>
2
5
10

$$$$
11615857
  -OEChem-09042306233D

 28 28  0     0  0  0  0  0  0999 V2000
   -6.3531   -1.4692    0.9941 Cl  0  0  0  0  0  0  0  0  0  0  0  0
   -4.0209    0.0601   -0.2504 O   0  0  0  0  0  0  0  0  0  0  0  0
   -1.6567   -1.0357   -0.3259 O   0  0  0  0  0  0  0  0  0  0  0  0
    5.7546    0.4152    0.2003 O   0  5  0  0  0  0  0  0  0  0  0  0
    5.1854   -1.6768   -0.1437 O   0  0  0  0  0  0  0  0  0  0  0  0
   -0.5253    0.9994    0.0375 N   0  0  0  0  0  0  0  0  0  0  0  0
    4.8831   -0.4711    0.0285 N   0  3  0  0  0  0  0  0  0  0  0  0
    0.8210    0.6334    0.0342 C   0  0  0  0  0  0  0  0  0  0  0  0
   -2.9429    0.9539   -0.0645 C   0  0  0  0  0  0  0  0  0  0  0  0
    1.8072    1.6017    0.2218 C   0  0  0  0  0  0  0  0  0  0  0  0
    1.1806   -0.7008   -0.1559 C   0  0  0  0  0  0  0  0  0  0  0  0
   -1.6464    0.1763   -0.1331 C   0  0  0  0  0  0  0  0  0  0  0  0
    3.5130   -0.0986    0.0294 C   0  0  0  0  0  0  0  0  0  0  0  0
    3.1532    1.2358    0.2193 C   0  0  0  0  0  0  0  0  0  0  0  0
    2.5267   -1.0669   -0.1583 C   0  0  0  0  0  0  0  0  0  0  0  0
   -5.2782    0.7274   -0.1975 C   0  0  0  0  0  0  0  0  0  0  0  0
   -6.4010   -0.2841   -0.3358 C   0  0  0  0  0  0  0  0  0  0  0  0
   -3.0131    1.4344    0.9177 H   0  0  0  0  0  0  0  0  0  0  0  0
   -2.9409    1.7149   -0.8530 H   0  0  0  0  0  0  0  0  0  0  0  0
   -0.7060    1.9905    0.1838 H   0  0  0  0  0  0  0  0  0  0  0  0
    1.5408    2.6450    0.3713 H   0  0  0  0  0  0  0  0  0  0  0  0
    0.4749   -1.5057   -0.3067 H   0  0  0  0  0  0  0  0  0  0  0  0
    3.8942    2.0170    0.3688 H   0  0  0  0  0  0  0  0  0  0  0  0
    2.7711   -2.1156   -0.3088 H   0  0  0  0  0  0  0  0  0  0  0  0
   -5.3369    1.4507   -1.0190 H   0  0  0  0  0  0  0  0  0  0  0  0
   -5.3718    1.2698    0.7511 H   0  0  0  0  0  0  0  0  0  0  0  0
   -7.3777    0.2070   -0.3172 H   0  0  0  0  0  0  0  0  0  0  0  0
   -6.3012   -0.8506   -1.2662 H   0  0  0  0  0  0  0  0  0  0  0  0
  1 17  1  0  0  0  0
  2  9  1  0  0  0  0
  2 16  1  0  0  0  0
  3 12  2  0  0  0  0
  4  7  1  0  0  0  0
  5  7  2  0  0  0  0
  6  8  1  0  0  0  0
  6 12  1  0  0  0  0
  6 20  1  0  0  0  0
  7 13  1  0  0  0  0
  8 10  2  0  0  0  0
  8 11  1  0  0  0  0
  9 12  1  0  0  0  0
  9 18  1  0  0  0  0
  9 19  1  0  0  0  0
 10 14  1  0  0  0  0
 10 21  1  0  0  0  0
 11 15  2  0  0  0  0
 11 22  1  0  0  0  0
 13 14  2  0  0  0  0
 13 15  1  0  0  0  0
 14 23  1  0  0  0  0
 15 24  1  0  0  0  0
 16 17  1  0  0  0  0
 16 25  1  0  0  0  0
 16 26  1  0  0  0  0
 17 27  1  0  0  0  0
 17 28  1  0  0  0  0
M  CHG  2   4  -1   7   1
M  END
> <PUBCHEM_COMPOUND_CID>
11615857

> <PUBCHEM_CONFORMER_RMSD>
0.8

> <PUBCHEM_CONFORMER_DIVERSEORDER>
1
3
14
20
8
19
15
13
21
4
18
22
16
10
6
17
5
12
7
9
11
2

> <PUBCHEM_MMFF94_PARTIAL_CHARGES>
22
1 -0.29
10 -0.15
11 -0.15
12 0.57
13 0.13
14 -0.15
15 -0.15
16 0.28
17 0.29
2 -0.56
20 0.37
21 0.15
22 0.15
23 0.15
24 0.15
3 -0.57
4 -0.52
5 -0.52
6 -0.55
7 0.91
8 0.12
9 0.34

> <PUBCHEM_EFFECTIVE_ROTOR_COUNT>
7

> <PUBCHEM_PHARMACOPHORE_FEATURES>
7
1 2 acceptor
1 3 acceptor
1 4 acceptor
1 4 anion
1 5 acceptor
1 6 donor
6 8 10 11 13 14 15 rings

> <PUBCHEM_HEAVY_ATOM_COUNT>
17

> <PUBCHEM_ATOM_DEF_STEREO_COUNT>
0

> <PUBCHEM_ATOM_UDEF_STEREO_COUNT>
0

> <PUBCHEM_BOND_DEF_STEREO_COUNT>
0

> <PUBCHEM_BOND_UDEF_STEREO_COUNT>
0

> <PUBCHEM_ISOTOPIC_ATOM_COUNT>
0

> <PUBCHEM_COMPONENT_COUNT>
1

> <PUBCHEM_CACTVS_TAUTO_COUNT>
2

> <PUBCHEM_CONFORMER_ID>
00B13E7100000001

> <PUBCHEM_MMFF94_ENERGY>
44.3533

> <PUBCHEM_FEATURE_SELFOVERLAP>
35.615

> <PUBCHEM_SHAPE_FINGERPRINT>
10366900 7 15574713595298598373
11287383 113 18260268577224756617
117890 112 11095889263499575811
12091667 2 18060698386689361229
12236239 1 17846779589889306353
12616971 3 17561359617261834285
13533116 47 13542194848680759340
13862211 1 18338233765576447570
1420 363 18408045117604253379
14251718 22 17967814951014209997
14251732 16 18334577983634269585
14350574 20 18334576845620838997
15048467 5 9007055768853485831
17834072 33 18272086123678285573
17834076 25 12679460894020268109
17844677 252 18408891750380151773
19489759 90 17022900147588788573
200 152 18059852853103837401
20645477 70 18412545375330537750
21150785 3 17022910072466938622
21267235 1 18342182146022438686
220451 1 16128655253773242509
23402539 116 17703782605508462765
23557571 272 17530962437042804581
23559900 14 18261107517624232497
26918003 58 18412263943741057569
3545911 37 18342737429163837484
4214541 1 18410855439492472149
42788 4 18411980252271227637
4463277 17 18413669101804625813
465052 167 18413392020964464142
5104073 3 18271523091877919240
542803 24 14129058102021992405
59682541 35 18340759425906578744

> <PUBCHEM_SHAPE_MULTIPOLES>
318.28
15.61
1.48
0.69
13.66
0.13
0.06
4.68
1.19
-0.35
0.12
0.49
0.08
0.84

> <PUBCHEM_SHAPE_SELFOVERLAP>
640.168

> <PUBCHEM_SHAPE_VOLUME>
187.5

> <PUBCHEM_COORDINATE_TYPE>
2
5
10

$$$$
