6483715
  -OEChem-09042305323D

 26 26  0     0  0  0  0  0  0999 V2000
    5.6877    0.7861    0.6239 Br  0  0  0  0  0  0  0  0  0  0  0  0
    2.6001    0.3176    0.1727 O   0  0  0  0  0  0  0  0  0  0  0  0
   -3.8061    1.4855   -0.1665 O   0  0  0  0  0  0  0  0  0  0  0  0
   -2.8571   -0.6622    0.0466 N   0  0  0  0  0  0  0  0  0  0  0  0
   -1.4842   -0.4158    0.0777 C   0  0  0  0  0  0  0  0  0  0  0  0
    1.2609    0.0771    0.1405 C   0  0  0  0  0  0  0  0  0  0  0  0
   -1.0083    0.8924   -0.0107 C   0  0  0  0  0  0  0  0  0  0  0  0
   -0.5875   -1.4776    0.1976 C   0  0  0  0  0  0  0  0  0  0  0  0
    0.3643    1.1387    0.0205 C   0  0  0  0  0  0  0  0  0  0  0  0
    0.7851   -1.2310    0.2291 C   0  0  0  0  0  0  0  0  0  0  0  0
    3.4551   -0.6978   -0.3505 C   0  0  0  0  0  0  0  0  0  0  0  0
    4.7407   -0.0733   -0.8497 C   0  0  0  0  0  0  0  0  0  0  0  0
   -3.9004    0.2663   -0.0678 C   0  0  0  0  0  0  0  0  0  0  0  0
   -5.2503   -0.4060   -0.0634 C   0  0  0  0  0  0  0  0  0  0  0  0
   -1.6397    1.7648   -0.1050 H   0  0  0  0  0  0  0  0  0  0  0  0
   -0.9451   -2.5015    0.2732 H   0  0  0  0  0  0  0  0  0  0  0  0
    0.7306    2.1595   -0.0485 H   0  0  0  0  0  0  0  0  0  0  0  0
    1.4468   -2.0835    0.3491 H   0  0  0  0  0  0  0  0  0  0  0  0
    2.9892   -1.2083   -1.2031 H   0  0  0  0  0  0  0  0  0  0  0  0
    3.6674   -1.4295    0.4381 H   0  0  0  0  0  0  0  0  0  0  0  0
   -3.1241   -1.6420    0.1166 H   0  0  0  0  0  0  0  0  0  0  0  0
    5.4202   -0.8175   -1.2722 H   0  0  0  0  0  0  0  0  0  0  0  0
    4.5509    0.7202   -1.5776 H   0  0  0  0  0  0  0  0  0  0  0  0
   -5.3307   -1.0784   -0.9221 H   0  0  0  0  0  0  0  0  0  0  0  0
   -6.0401    0.3477   -0.1266 H   0  0  0  0  0  0  0  0  0  0  0  0
   -5.3781   -0.9764    0.8610 H   0  0  0  0  0  0  0  0  0  0  0  0
  1 12  1  0  0  0  0
  2  6  1  0  0  0  0
  2 11  1  0  0  0  0
  3 13  2  0  0  0  0
  4  5  1  0  0  0  0
  4 13  1  0  0  0  0
  4 21  1  0  0  0  0
  5  7  2  0  0  0  0
  5  8  1  0  0  0  0
  6  9  2  0  0  0  0
  6 10  1  0  0  0  0
  7  9  1  0  0  0  0
  7 15  1  0  0  0  0
  8 10  2  0  0  0  0
  8 16  1  0  0  0  0
  9 17  1  0  0  0  0
 10 18  1  0  0  0  0
 11 12  1  0  0  0  0
 11 19  1  0  0  0  0
 11 20  1  0  0  0  0
 12 22  1  0  0  0  0
 12 23  1  0  0  0  0
 13 14  1  0  0  0  0
 14 24  1  0  0  0  0
 14 25  1  0  0  0  0
 14 26  1  0  0  0  0
M  END
> <PUBCHEM_COMPOUND_CID>
6483715

> <PUBCHEM_CONFORMER_RMSD>
0.6

> <PUBCHEM_CONFORMER_DIVERSEORDER>
1
29
22
15
30
23
9
14
27
2
28
16
25
13
20
21
7
12
26
11
24
5
17
10
4
18
6
19
3
8

> <PUBCHEM_MMFF94_PARTIAL_CHARGES>
19
1 -0.23
10 -0.15
11 0.28
12 0.23
13 0.57
14 0.06
15 0.15
16 0.15
17 0.15
18 0.15
2 -0.36
21 0.37
3 -0.57
4 -0.55
5 0.12
6 0.08
7 -0.15
8 -0.15
9 -0.15

> <PUBCHEM_EFFECTIVE_ROTOR_COUNT>
5

> <PUBCHEM_PHARMACOPHORE_FEATURES>
5
1 1 hydrophobe
1 2 acceptor
1 3 acceptor
1 4 donor
6 5 6 7 8 9 10 rings

> <PUBCHEM_HEAVY_ATOM_COUNT>
14

> <PUBCHEM_ATOM_DEF_STEREO_COUNT>
0

> <PUBCHEM_ATOM_UDEF_STEREO_COUNT>
0

> <PUBCHEM_BOND_DEF_STEREO_COUNT>
0

> <PUBCHEM_BOND_UDEF_STEREO_COUNT>
0

> <PUBCHEM_ISOTOPIC_ATOM_COUNT>
0

> <PUBCHEM_COMPONENT_COUNT>
1

> <PUBCHEM_CACTVS_TAUTO_COUNT>
2

> <PUBCHEM_CONFORMER_ID>
0062EF0300000001

> <PUBCHEM_MMFF94_ENERGY>
41.5269

> <PUBCHEM_FEATURE_SELFOVERLAP>
25.371

> <PUBCHEM_SHAPE_FINGERPRINT>
11287383 113 17703789253890587158
11401426 45 18411980273577142086
114248 4 17918275359255134062
13533116 47 13686308941930130364
13862211 1 18409163316081119179
14123238 8 17894912931777118324
14251718 22 18060418044755763718
14911166 2 18410577296581909407
14993402 34 18260832604776989477
15375358 24 18342741832075216518
17834072 33 16988558043834272956
17834076 25 18408603673900959500
187816 3 17775288265719561162
200 152 16774080656868176178
20279233 1 18201727266995410774
20645477 56 18410009966331493316
20645477 70 17560809780065101134
21029758 11 18202002140090728400
21267235 1 18339367457049889199
22485316 2 18131631188489492350
23402539 116 18341607131495385622
23402655 69 18338789010775154597
23557571 272 18338244765288490468
23559900 14 18341898498546728214
2916195 48 18341887515619312608
293599 30 18410857624997628205
366044 4 18408886243482868714
42788 4 18413108359854394956
4463277 17 18342741806099723385
4990 188 18202287974263773342
5104073 3 18335986346196635059
5374978 207 18410005534246919624

> <PUBCHEM_SHAPE_MULTIPOLES>
277.34
11.42
1.31
0.72
3.88
0.01
0.02
-2
0.2
-0.27
-0.05
0.54
0
0.42

> <PUBCHEM_SHAPE_SELFOVERLAP>
548.189

> <PUBCHEM_SHAPE_VOLUME>
169.5

> <PUBCHEM_COORDINATE_TYPE>
2
5
10

$$$$
